<additional><vType accel="2.6" color=".8,.2,.2" decel="4.1" emergencyDecel="4.5" id="passenger1a" length="5.0" maxSpeed="70" minGap="1.5" probability=".40" sigma="0.5" speedDev="0.1" vClass="passenger" /><vType accel="3.0" color=".8,.8,.8" decel="4.1" emergencyDecel="4.5" id="passenger2a" length="4.5" maxSpeed="50" minGap="1.5" probability=".20" sigma="0.5" speedDev="0.1" vClass="passenger" /><vType accel="2.8" color=".2,.2,.8" decel="4.1" emergencyDecel="4.5" id="passenger3a" length="4.5" maxSpeed="50" minGap="1.0" probability=".20" sigma="0.5" speedDev="0.1" vClass="passenger" /><vType accel="2.7" color=".3,.3,.3" decel="4.1" emergencyDecel="4.5" id="passenger4a" length="6.0" maxSpeed="70" minGap="1.5" probability=".10" sigma="0.5" speedDev="0.1" vClass="passenger" /><vType accel="2.4" color=".9,.9,.9" decel="4.1" emergencyDecel="4.5" id="passenger5a" length="5.5" maxSpeed="30" minGap="1.5" probability=".05" sigma="0.5" speedDev="0.1" vClass="passenger" /><vType accel="2.3" color=".8,.8,.0" decel="4.1" emergencyDecel="4.5" id="passenger6a" length="7.0" maxSpeed="30" minGap="2.5" probability=".05" sigma="0.5" speedDev="0.1" vClass="passenger" /><vType accel="2.2" color=".8,.2,.2" decel="3.8" emergencyDecel="4.5" id="passenger1b" length="5.0" maxSpeed="65" minGap="2.0" probability=".40" sigma="0.5" speedDev="0.1" vClass="passenger" /><vType accel="2.6" color=".8,.8,.8" decel="3.8" emergencyDecel="4.5" id="passenger2b" length="4.5" maxSpeed="45" minGap="2.0" probability=".20" sigma="0.5" speedDev="0.1" vClass="passenger" /><vType accel="2.4" color=".2,.2,.8" decel="3.8" emergencyDecel="4.5" id="passenger3b" length="4.5" maxSpeed="45" minGap="1.5" probability=".20" sigma="0.5" speedDev="0.1" vClass="passenger" /><vType accel="2.3" color=".3,.3,.3" decel="3.8" emergencyDecel="4.5" id="passenger4b" length="6.0" maxSpeed="65" minGap="2.0" probability=".10" sigma="0.5" speedDev="0.1" vClass="passenger" /><vType accel="2.0" color=".9,.9,.9" decel="3.8" emergencyDecel="4.5" id="passenger5b" length="5.5" maxSpeed="25" minGap="2.0" probability=".05" sigma="0.5" speedDev="0.1" vClass="passenger" /><vType accel="1.9" color=".8,.8,.0" decel="3.8" emergencyDecel="4.5" id="passenger6b" length="7.0" maxSpeed="25" minGap="3.0" probability=".05" sigma="0.5" speedDev="0.1" vClass="passenger" /><vType accel="3.0" color=".8,.2,.2" decel="4.4" emergencyDecel="4.5" id="passenger1c" length="5.0" maxSpeed="75" minGap="1.0" probability=".40" sigma="0.5" speedDev="0.1" vClass="passenger" /><vType accel="3.4" color=".8,.8,.8" decel="4.4" emergencyDecel="4.5" id="passenger2c" length="4.5" maxSpeed="55" minGap="1.0" probability=".20" sigma="0.5" speedDev="0.1" vClass="passenger" /><vType accel="3.2" color=".2,.2,.8" decel="4.4" emergencyDecel="4.5" id="passenger3c" length="4.5" maxSpeed="55" minGap="1.0" probability=".20" sigma="0.5" speedDev="0.1" vClass="passenger" /><vType accel="3.1" color=".3,.3,.3" decel="4.4" emergencyDecel="4.5" id="passenger4c" length="6.0" maxSpeed="75" minGap="1.0" probability=".10" sigma="0.5" speedDev="0.1" vClass="passenger" /><vType accel="2.8" color=".9,.9,.9" decel="4.4" emergencyDecel="4.5" id="passenger5c" length="5.5" maxSpeed="35" minGap="1.0" probability=".05" sigma="0.5" speedDev="0.1" vClass="passenger" /><vType accel="2.7" color=".8,.8,.0" decel="4.4" emergencyDecel="4.5" id="passenger6c" length="7.0" maxSpeed="35" minGap="2.0" probability=".05" sigma="0.5" speedDev="0.1" vClass="passenger" /></additional>