<routes>
<vType maxSpeed="50.00" probability="0.20" color="204,204,204" accel="3.0" decel="4.1" vClass="passenger" emergencyDecel="4.5" length="4.50" minGap="1.50" speedFactor="normc(1.00,0.10,0.20,2.00)" sigma="0.5" id="passenger2a"/>
    <vehicle type="passenger2a" depart="0.00" id="a2a0"><route edges="4609572#0 4609572#1 4609572#2 -219716856#0 -219716857#1 -219716857#0 -219716854 -152597287#6 -152597287#5 -152597287#3 -152597287#2 -152597287#1 -152597287#0 583097252#1 328847950 385836126#0 535301458 583922141 328847940 653805453 638446703 -4399112 156729452 288356688 156729446 156517058 179060432 179061345#1 156724777 666512604 32341044 4406207 64052771 87059428 32341117 87059422#0 419882018 -419882010#0                        "></route></vehicle>
    <vehicle type="passenger2a" depart="80.00" id="a2a1"><route edges="-4611402#1 -4611402#0 -4620318#0 -131644781 -4611369#11 -4611369#10 -4611369#5 -4611369#3 -4611369#2 -4611369#1 -4611369#0 4427335#0 4427335#1 4427335#2 4427335#3 4427335#4 4427335#6 170598141#0 170598141#1 170598141#2 260136547#0 260136547#1 328852473 659226748 521057238#0 521057238#1 653971214 -653971212 -659226747 -521057237#1 -521057237#0 -104043216 -111393025 4570090#1 4399095 328847936 67486819 4399098 328847871 156517059 62072522#1 463981123 179060432 179061345#1 4399101#0 4399101#1 329286271 53376240 463983939#0 89972201#1 329286297 329286300 4441825#0 4441825#1 4441825#2 -329286256#2 -329286256#0 -329286255 -329286257 4441817#0 4441817#1 4441817#2                        "></route></vehicle>
    <vehicle type="passenger2a" depart="160.00" id="a2a2"><route edges="4609567#0 4609567#1 4609567#2 4609567#3 4609567#4 4609567#5 -4609571#2 -4609571#1 -4609571#0 -4609558#10 -4609558#8 -4609558#7 -4609558#6 -4609558#5 -4609558#4 -4609558#3 -4609558#2 -4609558#1 -4609558#0 531527811#12 531527811#13 -4611371#4 -4611371#3 -4611371#2 -4611371#1 -4611371#0 -4620318#0 -131644781 -4611369#11 -4611369#10 -4611369#5 -4611369#3 -4611369#2 -4611369#1 -4611369#0 557263990#0 557263990#1 557263990#2 557263987#1 557263987#2 119810554#1 119810554#3 119810554#4 557263984#0 557263984#1 539782979 248963106#0 248963106#1 248963106#2 248963106#3 248963106#4 329163403#1 329163403#2 329163403#3 329163403#4 329163403#5 329163403#6 329163403#7 -136781632#0 -329163402#0 -82433536 -329163400#1 -329163400#0 -437045173#5 -437045173#3 -437045173#2 -437045173#1 -437045173#0 -727108696 -82433543#0 110263759#0 110263759#2 329163401 4453202 248783824 68034411#0 68034411#1 23723680 68034422 23723682 4453198#0 4453198#1 68034417 317794132 220173782#1 317794133#2 -219662933#0 -536569901#4 -536569901#3 -536569901#2 -536569901#1 -536569901#0 -24907061#3 -24907061#2 -24907061#1 -35135625#1 -58696106#1 -58696106#0 -25349279#8 -25349279#7 -25349279#6 -25349279#5 -25349279#4 -25349279#3 -25349279#2 -25349279#1 32040298#3 64052828#0 64052828#1 64052827#0 220173777 60298884#1                        "></route></vehicle>
    <vehicle type="passenger2a" depart="240.00" id="a2a3"><route edges="4609572#0 4609572#1 4609572#2 -219716856#0 -219716857#1 -219716857#0 -219716854 -152597287#6 -152597287#5 -152597287#3 -152597287#2 -152597287#1 -152597287#0 583097252#1 328847950 385836126#0 535301458 583922141 328847940 653805453 638446703 -4399112 156729452 288356688 156729446 156517058 179060432 179061345#1 4399101#0 4399101#1 329286271 53376240 482265404 4399100 329286233 329286232#0 4395415#0 4395415#1 4395415#2 328972784#0 328972784#1 325996410 328972785 104728237#0 104728237#1 104728237#2 104728237#3 289112669#0 289112669#1 289112669#2 328972805#0 328972805#1 149149061 34074908#0 34074908#1 34074908#2 34074908#3 34074908#4                        "></route></vehicle>
    <vehicle type="passenger2a" depart="320.00" id="a2a4"><route edges="60251895 32460618 4433351 62073307 4705771 62073306 156517063#1 4399070 32341044 32460642                        "></route></vehicle>
    <vehicle type="passenger2a" depart="400.00" id="a2a5"><route edges="67324778#0 67324778#1 67324778#2 67324778#3 67324778#4 67324778#5 67324778#6 67324778#7 67324778#8 67324778#9 67324778#10 -35156858#1 -444098637 -220173782#1 -317794132 -68034417 68034415#0 68034415#1 68034423 68034419 23723683 4453203#0 4453203#1 -248783828 -4453202 -329163401 -4453205 -110263759#1 119796455#1 727108696 329163399 437045173#1 437045173#2 437045173#3 437045173#4 437045173#6 329163400#1 82433536 329163402#0 329163402#2 248963104#1 119810553#1 119810553#2 119810553#3 119810565#1 119810565#2 119810565#3 119810565#4 119810565#5 119810565#6 119810565#8 119810565#9 119810562#0 119810562#1 119810562#2 119810562#3 119810562#4 119810562#5 119810562#6 119810562#7 119810570#0 119810570#1 119810570#2 458648630#0 458648630#1 458648630#2 638458256 551284434#1 551284434#2 551284437#0 551284437#1 521057238#1 653971214 -653971212 -659226747 -521057237#1 -521057237#0 -104043216 -111393025 4570090#1 4399095 328847936 67486819 4399098 328847871 156517059 62072522#1 463981123 179060432 179061345#1 4399101#0 463982792                        "></route></vehicle>
    <vehicle type="passenger2a" depart="480.00" id="a2a6"><route edges="53856394#0 53856394#1 4567401#1 589943087                        "></route></vehicle>
    <vehicle type="passenger2a" depart="560.00" id="a2a7"><route edges="4432390#0 -4432383#2 -4432383#1 -4432383#0 -4432378#0 329286293#1 329286293#2 650203661#1 -454027476 -329286268#0 -328972789#4 -328972789#2 -328972789#1 -386257052 -149149062 4406220 4406222 28409487 34075504#0 34075504#1 4405120#1 4405120#2 34074851 328972803#0 328972803#1 4432768#0 53376236 326814541#1 326814541#2 326814540 53376237 328972780 62073306 156517063#1 4399070 32341044 4406207 64052771 87059428 32341117 87059422#0 419882018 -419882010#0                        "></route></vehicle>
    <vehicle type="passenger2a" depart="640.00" id="a2a8"><route edges="199402814 -199402814 4628043 4628031#0 4628031#1 4628031#2 4628031#3 131752806#0 131752806#1 285590635#0 285590635#1 285590636#0 285590636#1 52503498#0 52503498#1 561501782 460052912#1 119810565#1 119810565#2 119810565#3 119810565#4 119810565#5 119810565#6 119810565#8 119810565#9 119810562#0 119810562#1 119810562#2 119810562#3 119810562#4 119810562#5 119810562#6 119810562#7 119810570#0 119810570#1 119810570#2 458648630#0 458648630#1 458648630#2 638458256 551284434#1 551284434#2 551284437#0 551284437#1 521057238#1 653971214 -653971212 -659226747 -521057237#1 -521057237#0 -104043216 -111393025 229943906#0 229943906#1 262649859 262649858 156517055 156729447 4396732                        "></route></vehicle>
    <vehicle type="passenger2a" depart="800.00" id="a2a10"><route edges="-122121092#2 -196615001#2 -196615001#1 -536569901#0 -24907061#3 -24907061#2 -24907061#1 -35135625#1 -58696106#1 -58696106#0 -25349279#8 -25349279#7 -25349279#6 -25349279#5 -25349279#4 -25349279#3 -25349279#2 -25349279#1 32040298#3 64052828#0 64052828#1 64052827#0 24670995#0 24670995#1 32089674 4406213#0 4406213#1 -79085677#2 -79085677#1 -79085677#0 -59475140#1 4406210 64052819#0 4406208 87059432 64052774 32460618 4433351 62073307 4399103#1 326272762#1 256078749 32340289#0 32340289#1 385816799#0 4396711#0 91395028 328972796#0 328972796#1 328972796#2 329286304#0 329286304#1 -329286256#2 -329286256#0 -329286255 -329286257 4441817#0 4441817#1 4441817#2                        "></route></vehicle>
    <vehicle type="passenger2a" depart="1040.00" id="a2a13"><route edges="187913310 288319660 24907061#3 536569901#0 536569901#1 536569901#2 536569901#3 536569901#4 219662933#0 -444098637 -220173782#1 -317794132 -68034417 68034415#0 68034415#1 68034423 68034419 23723683 4453203#0 4453203#1 -248783828 -4453202 -329163401 -4453205 -110263759#1 119796455#1 727108696 329163399 437045173#1 437045173#2 437045173#3 437045173#4 437045173#6 329163400#1 82433536 329163402#0 329163402#2 248963104#1 119810553#1 119810553#2 119810553#3 -539782979 -557263984#1 -557263984#0 -119810554#4 -119810554#3 -119810554#1 -119810554#0 -557263987#1 -557263990#2 -557263990#1 -557263990#0 4611369#0 4611369#1 4611369#2 4611369#3 4611369#5 4611369#10 4611369#11 4620317 4620318#0 4611371#0 4611371#1 4611371#2 4611371#3 4611371#4 -531527811#13 -531527811#12 4609558#0 4609558#1 4609558#2 4609558#3 4609558#4 4609558#5 4609558#6 4609558#7 4609558#8 4609558#10 4609571#0 4609571#1 4609571#2 4609571#3 -4609572#0                        "></route></vehicle>
    <vehicle type="passenger2a" depart="1120.00" id="a2a14"><route edges="-463982792 4399101#1 329286271 53376240 482265404 4399100 216165774#0 216165774#1 666512604 32341044 4406207 64052771 87059428 177007417#0 177007417#1 59475140#0 79085677#0 79085677#1 79085677#2 4406212#0 4406212#1 318728069 32089666 4406216 4406214#0 4406214#1 35135627 613501570 613501572 35156860#1 4453197#0 4453197#1 66310448 164600250 -320744211 -320744210#1 -320744210#0 64051644 164600251 320744213#0 320744213#1 320744213#2                        "></route></vehicle>
    <vehicle type="passenger2a" depart="1200.00" id="a2a15"><route edges="4609572#0 4609572#1 4609572#2 -219716856#0 -219716857#1 -219716857#0 -219716854 -152597287#6 -152597287#5 -152597287#3 -152597287#2 -152597287#1 -152597287#0 583097252#1 328847950 385836126#0 535301458 583922141 328847940 653805453 638446703 -328847941#2 -328847941#1 -328847941#0 -457679900#1 -590035773 -53856394#1 -53856394#0                        "></route></vehicle>
    <vehicle type="passenger2a" depart="1280.00" id="a2a16"><route edges="-4611379#3 4611379#3 193233144#0 193233144#2 193233144#3 4611383#6 4611383#8 -25520874#2 -25520874#1 -25520874#0 385545839#0 385545839#1 385545839#3 385545839#4 385545839#5 385545839#6 385545839#7 385545839#9 385545839#10 385545839#11 -460052912#1 -561501782 -52503498#1 -52503498#0 -285590636#1 -285590636#0 -285590635#1 -285590635#0 -131752806#1 -131752806#0 -97166541#4 -97166541#3 -97166541#0 -241955501 242930246#1 242930246#2 397626754#0 397626754#1 397626754#3 397626754#4 397626754#5 602257867#0 602257867#1 602257867#2 602257867#4 602257867#5 245503037#0 245503037#1 328962562#0 328962562#1 328962562#2 242047953 328962561#0 328962561#1 242045600#1 242045600#2 328962563#0 328962563#1 241957560#1 328962568#1 328962568#2 328962568#3 241957561#0 241957561#1                        "></route></vehicle>
    <vehicle type="passenger2a" depart="1520.00" id="a2a19"><route edges="-4705777#4 -4705777#1 -4705777#0 -531527811#13 -531527811#12 -531527811#11 -531527811#10 -531527811#9 -531527811#8 -531527811#7 -531527811#6 -531527811#5 -531527811#4 -531527811#2 -531527811#1 222826764 641535063#1 328852474 659223380 4386508#0 4386508#1 641535062#0 641535062#1 -521057237#1 -521057237#0 -104043216 -111393025 4570090#1 4399095 328847936 67486819 4399098 328847871 156517059 62072522#1 463981123 179060432 179061345#1 4399101#0 4399101#1 329286271 53376240 463983939#0 89972201#1 329286297 329286300 4441825#0 4441825#1 4441829                        "></route></vehicle>
    <vehicle type="passenger2a" depart="1600.00" id="a2a20"><route edges="-4705777#4 -4705777#1 -4705777#0 -531527811#13 -531527811#12 -531527811#11 -531527811#10 -531527811#9 -531527811#8 -531527811#7 -531527811#6 -531527811#5 -531527811#4 -531527811#2 -531527811#1 222826764 641535063#1 328852474 659223380 4386508#0 4386508#1 641535062#0 641535062#1 -521057237#1 -521057237#0 -104043216 -111393025 4570090#1 4399095 328847936 67486819 4399098 328847871 156517059 62072522#1 463981123 179060432 179061345#1 156724777 666512604 32341044 32460642                        "></route></vehicle>
    <vehicle type="passenger2a" depart="1680.00" id="a2a21"><route edges="67324778#0 67324778#1 67324778#2 67324778#3 67324778#4 67324778#5 67324778#6 67324778#7 67324778#8 67324778#9 67324778#10 -35156858#1 -219662933#0 -536569901#4 -536569901#3 -536569901#2 -536569901#1 -536569901#0 -24907061#3 -24907061#2 -24907061#1 -35135625#1 -58696106#1 -58696106#0 -25349279#8 -25349279#7 -25349279#6 -25349279#5 -25349279#4 -25349279#3 -25349279#2 -25349279#1 32040298#3 64052828#0 64052828#1 64052827#0 24670995#0 24670995#1 32089674 4406213#0 4406213#1 -79085677#2 -79085677#1 -79085677#0 -59475140#1 4406210 64052819#0 4406208 87059432 64052774 32460618 4433351 62073307 4399103#1 387911767#0 387911767#1 387911767#2 4387602#0 4591084 4591087#0 4591087#1                        "></route></vehicle>
    <vehicle type="passenger2a" depart="1760.00" id="a2a22"><route edges="53856394#0 53856394#1 590035773 457679900#1 328847941#0 328847941#1 328847941#2 -4399112 156729452 288356688 156729446 136776464 156725930 328847936 67486819 67486821 67486811 4399096 262649859 262649858 156517055 156729447 4396732                        "></route></vehicle>
    <vehicle type="passenger2a" depart="1840.00" id="a2a23"><route edges="4609572#0 4609572#1 4609572#2 -219716856#0 -219716857#1 -219716857#0 -219716854 -152597287#6 -152597287#5 -152597287#3 -152597287#2 -152597287#1 -152597287#0 583097252#1 328847950 385836126#0 535301458 583922141 328847940 653805453 638446703 -4399112 156729452 288356688 156729446 156517058 179060432 179061345#1 4399101#0 463982792                        "></route></vehicle>
    <vehicle type="passenger2a" depart="2080.00" id="a2a26"><route edges="131610059#0 157808653#0 157808653#1 722399975 329148174#0 329148174#1 329163411 329163410#0 329163409 329163412 4624406#0 4624406#1 329163392#0 329163392#1 329163393#0 329163393#1 597799270#0 597799270#1 4427335#0 4427335#1 4427335#2 4427335#3 4427335#4 4427335#6 170598141#0 170598141#1 170598141#2 260136547#0 260136547#1 328852473 659226748 521057238#0 521057238#1 653971214 -653971212 -659226747 -521057237#1 -521057237#0 -104043216 -111393025 4570090#1 4399095 328847936 67486819 4399098 328847871 156517059 62072522#1 463981123 179060432 179061345#1 4399101#0 4399101#1 329286271 53376240 463983939#0 89972201#1 329286297 329286300 4441825#0 4441825#1 4441825#2 -329286256#2 -329286256#0 -329286255 -329286257 4441817#0 4441817#1 4441817#2                        "></route></vehicle>
    <vehicle type="passenger2a" depart="2160.00" id="a2a27"><route edges="-329163391#3 -329163391#2 -329163391#0 -177172368 -252378479#1 -252378479#0 -329163419#0 -329163415 -329163417 -329163423#5 -329163423#3 -329163423#2 -329163423#1 -329163423#0 -329163421#2 -329163421#1 -329163421#0 -329163405#1 -329163405#0 -329163407#2 -329163407#1 -329163407#0 -4427331#2 34074419 -329163394#2 -329163394#1 -329163394#0 -4427332#2 -4427332#1 -4427332#0 4624406#0 4624406#1 329163392#0 329163392#1 329163393#0 329163393#1 597799270#0 597799270#1 4427335#0 4427335#1 4427335#2 4427335#3 4427335#4 4427335#6 170598141#0 170598141#1 170598141#2 260136547#0 260136547#1 328852473 659226748 521057238#0 521057238#1 653971214 -653971212 -659226747 -521057237#1 -521057237#0 -104043216 -111393025 229943906#0 229943906#1 262649859 262649858 156517055 156729447 4396732                        "></route></vehicle>
    <vehicle type="passenger2a" depart="2240.00" id="a2a28"><route edges="60251895 32460618 4433351 62073307 4705771 62073306 156517063#1 4399070 32341044 32460642                        "></route></vehicle>
    <vehicle type="passenger2a" depart="2320.00" id="a2a29"><route edges="4609567#0 4609567#1 4609567#2 4609567#3 4609567#4 4609567#5 -4609571#2 -4609571#1 -4609571#0 -4609558#10 -4609558#8 -4609558#7 -4609558#6 -4609558#5 -4609558#4 -4609558#3 -4609558#2 -4609558#1 -4609558#0 -531527811#11 -531527811#10 -531527811#9 -531527811#8 -531527811#7 -531527811#6 -531527811#5 -531527811#4 -531527811#2 -531527811#1 222826764 641535063#1 328852474 659223380 4386508#0 4386508#1 641535062#0 641535062#1 -521057237#1 -521057237#0 -104043216 -111393025 229943906#0 229943906#1 262649859 262649858 156517055 156729447 4396732                        "></route></vehicle>
    <vehicle type="passenger2a" depart="2400.00" id="a2a30"><route edges="4567395 589943086 -589943087 -4567401#1 590035773 457679900#1 328847941#0 328847941#1 328847941#2 458961306 -535301458 -385836126#1 4399110 653890304 653999909 531527809#0 531527809#1 531527811#1 531527811#2 531527811#3 531527811#5 531527811#6 531527811#7 531527811#8 531527811#9 531527811#10 531527811#11 531527811#12 531527811#13 38820355 4705777#1 4705777#3                        "></route></vehicle>
    <vehicle type="passenger2a" depart="2480.00" id="a2a31"><route edges="4609572#0 -4609571#3 -4609571#2 -4609571#1 -4609571#0 -4609558#10 -4609558#8 -4609558#7 -4609558#6 -4609558#5 -4609558#4 -4609558#3 -4609558#2 -4609558#1 -4609558#0 531527811#12 531527811#13 -4611371#4 -4611371#3 -4611371#2 -4611371#1 -4611371#0 -4620318#0 -131644781 -4611369#11 -4611369#10 -4611369#5 -4611369#3 -4611369#2 -4611369#1 -4611369#0 -597799270#1 -597799270#0 252616539#0 252616539#1                        "></route></vehicle>
    <vehicle type="passenger2a" depart="2560.00" id="a2a32"><route edges="-69687227#1 69687227#1 24646017 -293803034#2 -293803034#1 265319796#1 293803044#1 262771814#1 262771814#2 288671397#0 288671397#1 293803041#0 293803041#1 293803041#2 238008364 293803042#0 288248506#0 288248506#1 288248504 243480577 -38820340#3 -38820340#1 -116353640#3 -116353640#2 -116353640#1 -116353640#0 -265319793 -431726761 -220173775#1 431726762#1 25116776#0 25116776#2 25116776#3 25116776#4 25116776#5 25116776#8 596568012#1                        "></route></vehicle>
    <vehicle type="passenger2a" depart="2640.00" id="a2a33"><route edges="458961309 -603439036 -115670823 458961306 -535301458 -385836126#1 4399110 653890304 653999909 531527809#0 531527809#1 531527811#1 531527811#2 531527811#3 531527811#5 531527811#6 531527811#7 531527811#8 531527811#9 531527811#10 531527811#11 531527811#12 531527811#13 38820355 4705777#1 4705777#3                        "></route></vehicle>
    <vehicle type="passenger2a" depart="2800.00" id="a2a35"><route edges="47356744 178988631 156729446 136776464 156725930 328847936 67486819 67486821 67486811 4399096 262649859 262649858 156517055 156729450 178988487#1 639759316 152597286 178988486#2 152597287#0 152597287#1 152597287#2 152597287#3 152597287#5 152597287#6 219716854 219716857#0 219716857#1 219716856#0 219716855                        "></route></vehicle>
    <vehicle type="passenger2a" depart="2880.00" id="a2a36"><route edges="-584518943#2 23481363#0 23481363#1 23481363#2 23481363#3 23481363#4 23481363#5 23481363#7 23481363#8 -23481356#3 -23481356#2 -23481356#1 -59475140#1 4406210 64052819#0 4406208 87059432 64052774 32460618 4433351 62073307 4399103#1 51732984#1 328972785 104728237#0 104728237#1 104728237#2 104728237#3 289112669#0 289112669#1 289112669#2 328972805#0 328972805#1 132314084#0 132314084#1 149149062 386257052 328972789#0 328972789#2 328972789#4 328972789#5 4432380#0 4432380#1 -4432378#2 -4432378#1 4432383#0 4432383#1 -4432385#0                        "></route></vehicle>
    <vehicle type="passenger2a" depart="2960.00" id="a2a37"><route edges="-241953973 241953973 643886892 245522977#1 245522977#2 245522976#0 245522976#1 245522976#2 172207885#1 172207935#0 172207935#1 172207935#2 172207935#3 172207935#4 172207935#5 586078399#1 557289881#0 557289881#1 385545839#0 385545839#1 385545839#3 385545839#4 385545839#5 385545839#6 385545839#7 385545839#9 385545839#10 385545839#11 -460052912#1 -561501782 -52503498#1 -52503498#0 -285590636#1 -285590636#0 -285590635#1 -285590635#0 -131752806#1 -131752806#0 -97166541#4 -97166541#3 -97166541#0 -241955501 241955496#1 241955496#2 241955496#3 397626745#0 397626745#1 171575216 22819689#0 22819689#1 22819692 22819691#0 18921550#1 425873849#1 425873848#1 425873848#2 425873848#3 67022241#0 24646013#1 24646013#2 -243480578#3 -243480578#2 -243480578#0 -85076013#3 -85076013#2 -85076013#0 -66021171#4 -66021171#2 -66021171#1 -66021171#0 -613501578 -60302077#2 -60302077#1 -60302077#0 -520786903 -419882020 419882018 -419882010#0                        "></route></vehicle>
    <vehicle type="passenger2a" depart="3040.00" id="a2a38"><route edges="47356744 178988631 156729446 156517058 179060432 179061345#1 4399101#0 4399101#1 329286271 53376240 463983939#0 89972201#1 329286297 329286300 4441825#0 4441825#1 4441829                        "></route></vehicle>
    <vehicle type="passenger2a" depart="3280.00" id="a2a41"><route edges="-4446574 -4446571#1 4446572#0 4446572#1 4446572#2 328972790#1 328972790#2 34075504#0 34075504#1 4405120#1 4405120#2 34074851 328972803#0 328972803#1 4432768#0 51733196#0 387911767#0 387911767#1 387911767#2 -328972793#1 328972793#0                        "></route></vehicle>
    <vehicle type="passenger2a" depart="3360.00" id="a2a42"><route edges="-186702383 4627941 4627942#7 4627943#0 241955504#1 241955504#2 328962564#0 328962564#1 241955506#0 241955506#1 241955506#2 241955506#4 585488761#0 585488761#1 243122790 58950779 84033917 480884810 79085675#2 452730845 484029325 328962566#1 328962566#2 328852476#0 328852476#1 639360257 669403496 157933010#0 157933010#1 157933010#2 458648630#0 458648630#1 458648630#2 638458256 551284434#1 551284434#2 551284437#0 551284437#1 653965403#0 653965403#1 641535065 -641535063#1 -641535063#0 4609554#0 4609554#1 4609556#0 4609556#1 -4609558#16 -4609558#15 -4609558#14 -4609558#13 -4609558#12 4609571#0 4609571#1 4609571#2 4609571#3 -4609572#0                        "></route></vehicle>
    <vehicle type="passenger2a" depart="3440.00" id="a2a43"><route edges="-242047945 542288858 -241957549 -328962568#3 -328962568#2 -328962568#1 -241957560#1 241955506#0 241955506#1 241955506#2 241955506#4 585488761#0 585488761#1 243122790 58950779 84033917 480884810 79085675#2 452730845 484029325 328962566#1 328962566#2 328852476#0 328852476#1 639360257 4427354#0 4427354#1 385545839#0 385545839#1 385545839#3 385545839#4 385545839#5 385545839#6 385545839#7 385545839#9 385545839#10 385545839#11 248963106#0 248963106#1 248963106#2 248963106#3 248963106#4 329163403#1 329163403#2 329163403#3 329163403#4 329163403#5 329163403#6 329163403#7 4427330#0 4427330#1 329163395 67027737#0 131610063#0 131610063#2 131610063#3 329163396 131610062#2 329163398#0 459427144 -219954685 -219954684 -4624438#5 -4624438#4 -4624438#3 -4624438#2 -4624438#1 -4624438#0 459427145#1 459427145#2 459427145#3                        "></route></vehicle>
    <vehicle type="passenger2a" depart="3520.00" id="a2a44"><route edges="-4432392#1 -4432392#0 4432390#4 4432374#0 4432374#1 4432374#3 4432374#4 4432374#5 4432374#7 453800738#0 453800738#1 -149149062 4406220 4406222 28409487 34075504#0 34075504#1 4405120#1 4405120#2 34074851 328972803#0 328972803#1 4432768#0 53376236 326814541#1 326814541#2 326814540 53376237 328972780 62073306 156517063#1 4399070 32341044 4406207 64052771 87059428 32341117 87059422#0 419882020 23019181#0 23019181#1 23019181#2 24645209                        "></route></vehicle>
    <vehicle type="passenger2a" depart="3600.00" id="b2a0"><route edges="84018136#0 84018136#1 84018136#2 28432039#1 28432039#2 28432039#3 62836481 68034410#0 68034410#1 317794101#1 68034419 23723683 4453203#0 4453203#1 -248783828 -4453202 -329163401 -4453205 -110263759#1 119796455#1 727108696 329163399 437045173#1 437045173#2 437045173#3 437045173#4 437045173#6 329163400#1 82433536 329163402#0 329163402#2 248963104#1 119810553#1 119810553#2 119810553#3 -539782979 -557263984#1 -557263984#0 -119810554#4 -119810554#3 -119810554#1 -119810554#0 -557263987#1 -557263990#2 -557263990#1 -557263990#0 4611369#0 4611369#1 4611369#2 4611369#3 4611369#5 4611369#10 4611369#11 4620317 4620318#0 4611371#0 4611371#1 4611371#2 4611371#3 4611371#4 -531527811#13 -531527811#12 4609558#0 4609558#1 4609558#2 4609558#3 4609558#4 4609558#5 4609558#6 4609558#7 4609558#8 4609558#10 4609571#0 4609571#1 4609571#2 4609571#3 -4609572#0                       "></route></vehicle>
    <vehicle type="passenger2a" depart="3690.00" id="b2a1"><route edges="47356744 178988631 156729446 136776464 156725930 328847936 67486819 67486821 4399104#0 4399104#1 25634944 104043216 458657025#0 458657025#1 531527813 138011859#0 458648634#1 458651454#0 458651454#1 639360272#1 639360276#0 639360276#1 639360276#2 639360276#3 639360257 4427354#0 4427354#1 385545839#0 385545839#1 385545839#3 385545839#4 385545839#5 385545839#6 385545839#7 385545839#9 385545839#10 385545839#11 248963106#0 248963106#1 248963106#2 248963106#3 248963106#4 329163403#1 329163403#2 329163403#3 329163403#4 329163403#5 329163403#6 329163403#7 -136781632#0 -329163402#0 -82433536 -329163400#1 -329163400#0 -437045173#5 -437045173#3 -437045173#2 -437045173#1 -437045173#0 -727108696 -82433543#0 110263759#0 110263759#2 329163401 4453202 248783824 68034411#0 68034411#1 23723680 68034422 23723682 38820717 68034416#0 68034416#1 68034416#3 -62836481 -28432039#3 -28432039#2 -28432039#1 -84018136#2 -84018136#1 -84018136#0                       "></route></vehicle>
    <vehicle type="passenger2a" depart="3780.00" id="b2a2"><route edges="60418608#0 60418608#2 60418608#3 26763943#1 26763943#2 26763943#3 62836477 62836479#1 62072523#0 62072523#1 32341117 4406208 87059432 64052774 32460618 151288342 156724778 463982793#1 62115073#1 444240350 156517055 156729450 178988487#1 639759316 328847950 385836126#0 535301458 583922141 328847940 653805453 638446703 -328847941#2 -328847941#1 -328847941#0 -457679900#1 -590035773 -53856394#1 -53856394#0                       "></route></vehicle>
    <vehicle type="passenger2a" depart="3870.00" id="b2a3"><route edges="-4441817#2 -4441817#1 -4441817#0 -329286254#0 -329286258#5 -329286258#4 -329286258#3 -329286258#1 -329286258#0 -4441823#1 -4441823#0 -454027476 -329286268#0 -328972789#4 -328972789#2 -328972789#1 -386257052 -149149062 4406220 132314083#0 132314083#1 34074908#1 34074908#2 34074908#3 34074908#4                       "></route></vehicle>
    <vehicle type="passenger2a" depart="3960.00" id="b2a4"><route edges="60251895 32460618 151288342 156724778 463982793#1 62115073#1 62114271 156517085 156725931 4399104#0 4399104#1 25634944 104043216 659223504 521057237#1 659226747 653971212 -653971214 -521057238#1 653965403#0 653965403#1 641535065 -641535063#1 -641535063#0 531527811#1 531527811#2 531527811#3 531527811#5 531527811#6 531527811#7 531527811#8 531527811#9 531527811#10 531527811#11 531527811#12 531527811#13 38820355 4705777#1 4705777#3                       "></route></vehicle>
    <vehicle type="passenger2a" depart="4050.00" id="b2a5"><route edges="-204335563#2 -204335563#0 -4624435#8 -4624444 -4624446#0 -4624432#4 -4624432#3 -4624432#2 -4624432#1 -4624432#0 -329163407#1 -329163407#0 -4427331#2 34074419 -329163394#2 -329163394#1 -329163394#0 -4427332#2 -4427332#1 -4427332#0 4624406#0 4624406#1 329163392#0 329163392#1 329163393#0 329163393#1 597799270#0 597799270#1 4427335#0 4427335#1 4427335#2 4427335#3 4427335#4 4427335#6 170598141#0 170598141#1 170598141#2 260136547#0 260136547#1 328852473 659226748 521057238#0 521057238#1 653971214 -653971212 -659226747 -521057237#1 -521057237#0 -104043216 -111393025 4570090#1 4399095 328847936 67486819 4399098 328847871 156517059 62072522#1 463981123 179060432 179061345#1 4399101#0 4399101#1 329286271 53376240 463983939#0 89972201#1 329286297 329286300 329286298                       "></route></vehicle>
    <vehicle type="passenger2a" depart="4230.00" id="b2a7"><route edges="61236489 -61236489 61236488 -419882009#0 -32040289#0 -419882007 -62073305#4 -62073305#3 -62073305#2 -62073305#1 -62073305#0 -68034420#1 -68034420#0 68034409 419882008 68034422 23723682 4453198#0 4453198#1 68034417 317794132 220173782#1 317794133#2 35156858#1 317794135#0 117813683 117813687#0 117813687#1 35156859#0 35156859#1 66310448 164600250 -320744211 -320744210#1 -320744210#0 -320744207#0 -4453190#2 -4453190#1 -4453190#0                       "></route></vehicle>
    <vehicle type="passenger2a" depart="4320.00" id="b2a8"><route edges="-596568012#1 -25116776#8 -25116776#6 -25116776#4 -25116776#3 -25116776#2 -25116776#0 -431726762#1 -220173782#1 -317794132 -68034417 68034415#0 68034415#1 68034423 68034419 23723683 4453203#0 4453203#1 -248783828 -4453202 -329163401 -4453205 -110263759#1 119796455#1 727108696 329163399 437045173#1 437045173#2 437045173#3 437045173#4 437045173#6 329163400#1 82433536 329163402#0 329163402#2 248963104#1 119810553#1 119810553#2 119810553#3 119810565#1 119810565#2 119810565#3 119810565#4 119810565#5 119810565#6 119810565#8 119810565#9 119810562#0 119810562#1 119810562#2 119810562#3 119810562#4 119810562#5 119810562#6 119810562#7 119810570#0 119810570#1 119810570#2 458648630#0 458648630#1 458648630#2 638458256 551284434#1 551284434#2 551284437#0 551284437#1 521057238#1 653971214 -653971212 -659226747 -521057237#1 -521057237#0 -104043216 -111393025 229943906#0 229943906#1 262649859 262649858 156517055 156729447 4396732                       "></route></vehicle>
    <vehicle type="passenger2a" depart="4410.00" id="b2a9"><route edges="328847934#0 328847934#3 328847928#1 328847922#2 328847905#0 328847870 328847871 156517059 62072522#1 463981123 179060432 179061345#1 156724777 666512604 32341044 32460642                       "></route></vehicle>
    <vehicle type="passenger2a" depart="4500.00" id="b2a10"><route edges="-4441817#2 -4441817#1 -4441817#0 329286257 329286255 329286256#0 329286256#1 -4441825#3 -4441825#1 -4441825#0 -329286300 -329286297 -457627968 4442538#1 329286299 180166725 463981127 4442537 156724778 463982793#1 62115073#1 444240350 156517055 156729450 178988487#1 639759316 152597286 178988486#2 152597287#0 152597287#1 152597287#2 152597287#3 152597287#5 152597287#6 219716854 219716857#0 219716857#1 219716856#0 -4609572#2 -4609572#1 -4609572#0                       "></route></vehicle>
    <vehicle type="passenger2a" depart="4590.00" id="b2a11"><route edges="60251895 32460618 151288342 156724778 463982793#1 62115073#1 444240350 156517055 156729450 178988487#1 639759316 152597286 178988486#2 152597287#0 152597287#1 152597287#2 152597287#3 152597287#5 152597287#6 219716854 219716857#0 219716857#1 219716856#0 -4609572#2 -4609572#1 -4609572#0                       "></route></vehicle>