<routes>
<vType maxSpeed="25.00" probability="0.05" color="230,230,230" accel="2.0" decel="3.8" vClass="passenger" emergencyDecel="4.5" length="5.50" minGap="2.00" speedFactor="normc(1.00,0.10,0.20,2.00)" sigma="0.5" id="passenger5b"/>
    <vehicle type="passenger5b" depart="0.00" id="a5b0"><route edges="24993817 -63108317#1 -63108317#0 24993799 62836477 62836479#1 62072523#0 62072523#1 32341117 4406208 87059432 64052774 32460618 4433351 62073307 4399103#1 326272762#1 256078749 32340289#0 32340289#1 385816799#0 147148100 329286231 -466325282 -180166725 -482265404 463983939#0 89972201#1 329286297 329286300 4442548#1 4442548#2 -4481470#2 -4481470#1 -4481470#0                        "></route></vehicle>
    <vehicle type="passenger5b" depart="80.00" id="a5b1"><route edges="227562699#0 227562699#1 227562699#2 227562699#3 227562699#4 227562699#6 328847905#0 328847935 67486821 67486811 4399096 262649859 262649858 156517055 156729450 178988487#1 639759316 152597286 178988486#2 152597287#0 152597287#1 152597287#2 152597287#3 152597287#5 152597287#6 219716854 219716857#0 219716857#1 219716856#0 219716855                        "></route></vehicle>
    <vehicle type="passenger5b" depart="240.00" id="a5b3"><route edges="4432390#0 -4432383#2 -4432383#1 -4432383#0 -4432378#0 329286293#1 329286293#2 650203661#1 -454027476 -329286268#0 -328972789#4 -328972789#2 -328972789#1 -386257052 -149149062 4406220 4406222 28409487 34075504#0 34075504#1 4405120#1 4405120#2 34074851 328972803#0 328972803#1 4432768#0 51733196#0 387911767#0 387911767#1 387911767#2 4387602#0 4387602#1 4387602#2 4387602#3 4395414 439208434 328962569#0 328962569#1 328962569#2 4427352#0 4427352#1 243122790 58950779 84033917 480884810 79085675#2 452730845 484029325 328962566#1 328962566#2 328852476#0 328852476#1 639360257 4427354#0 4427354#1 385545839#0 385545839#1 385545839#3 385545839#4 462397653#4 4427345#2 4427345#3 4427345#4 4427345#5 4427345#6 4427346#0 15070830 -200843277#4 -200843277#3 -200843277#2 -200843277#1 -200843277#0                        "></route></vehicle>
    <vehicle type="passenger5b" depart="320.00" id="a5b4"><route edges="60418608#0 60418608#2 60418608#3 26763943#1 26763943#2 26763943#3 62836477 62836479#1 62072523#0 62072523#1 32341117 87059422#0 419882020 419882019 60302077#0 60302077#1 60302077#2 540214008 66021171#0 66021171#1 66021171#2 66021171#4 85076013#0 85076013#2 85076013#3 435017532#1 435017532#2 435017532#3 435017532#4 118254791#1 118254791#4 23076776#1 23076776#2 304505287#0 -472350008#1 -472350008#0 -25745025#3 -25745025#2 -25745025#0 266925780#0 266925780#1 266925780#2 -419882007 -62073305#4 -62073305#3 -62073305#2 -62073305#1 -62073305#0 -68034420#1 -68034420#0 68034409 419882008 68034422 23723682 38820717 68034416#0 68034416#1 68034416#3 -62836481 -28432039#3 -28432039#2 -28432039#1 -84018136#2 -84018136#1 -84018136#0                        "></route></vehicle>
    <vehicle type="passenger5b" depart="400.00" id="a5b5"><route edges="-4432392#1 -4432392#0 -4432390#3 -4432390#2 -4432390#1 -4432383#2 -4432383#1 -4432383#0 -4432378#0 329286293#1 329286293#2 650203661#1 454027469 4441823#1 681482465 329286258#1 329286258#3 329286258#4 329286258#5 329286254#0 329286257 329286255 329286256#0 329286256#1 653656168#0                        "></route></vehicle>
    <vehicle type="passenger5b" depart="480.00" id="a5b6"><route edges="-399370052 -399370048 -677322184#1 677322182 657044730#1 657044730#2 677745868#0 677745868#1 4386508#1 641535062#0 641535062#1 659226747 653971212 -653971214 -521057238#1 -521057238#0 -659226748 -328852473 -260136547#1 -260136547#0 -170598141#2 -170598141#1 -170598141#0 -4427335#6 -4427335#4 -4427335#3 -4427335#2 -4427335#1 -4427335#0 -597799270#1 -597799270#0 -329163393#1 -329163393#0 -329163392#1 -329163392#0 -4624406#1 -4624406#0 4427332#0 4427332#1 4427332#2 329163394#0 329163394#1 329163394#2 -34074419 4427331#2 329163407#0 329163407#1 329163407#2 329163405#0 329163405#1 329163421#0 329163421#1 329163421#2 329163423#0 329163423#1 329163423#2 329163423#3 329163423#5 329163417 329163415 329163419#0 252378479#0 252378479#1 177172368 329163391#0 329163391#2 329163391#3                        "></route></vehicle>
    <vehicle type="passenger5b" depart="640.00" id="a5b8"><route edges="84018136#0 84018136#1 84018136#2 419882012#1 419882012#2 594086993#3 594086993#5 596568012#1                        "></route></vehicle>
    <vehicle type="passenger5b" depart="720.00" id="a5b9"><route edges="4609567#0 4609567#1 4609567#2 4609567#3 4609567#4 4609567#5 -4609571#2 -4609571#1 -4609571#0 -4609558#10 -4609561#16 -4609561#15 -4609561#13 -4609561#12 -4609561#11 -4609561#10 -4609561#9 -4609561#8 -4609561#7 -4609561#6 -4609561#5 -4609561#4 -4609561#3 -4609561#2 -4609561#1 -4609561#0 4705777#3                        "></route></vehicle>
    <vehicle type="passenger5b" depart="880.00" id="a5b11"><route edges="-4446574 -4446571#1 4446572#0 4446572#1 4446572#2 328972790#1 328972790#2 34075504#0 34075504#1 4405120#1 4405120#2 34074851 328972803#0 328972803#1 4432768#0 53376236 326814541#1 326814541#2 326814540 53376237 328972780 62073306 156517063#1 4399070 32341044 4406207 64052771 87059428 177007417#0 177007417#1 59475140#0 23481356#1 23481356#2 23481356#3 -23481363#8 -23481363#7 -23481363#5 -23481363#4 -23481363#3 -23481363#2 -23481363#1 -23481363#0 584518943#2                        "></route></vehicle>
    <vehicle type="passenger5b" depart="960.00" id="a5b12"><route edges="60251895 32460618 4433351 62073307 4399103#1 51732984#1 328972785 104728237#0 104728237#1 104728237#2 104728237#3 289112669#0 289112669#1 289112669#2 328972805#0 328972805#1 132314084#0 132314084#1 149149062 386257052 328972789#0 328972789#2 328972789#4 328972789#5 4432380#0 4432380#1 -4432378#2 -4432378#1 4432383#0 4432383#1 -4432385#0                        "></route></vehicle>
    <vehicle type="passenger5b" depart="1040.00" id="a5b13"><route edges="-60418432#1 -60418432#0 -60418182 -25745025#0 266925780#0 266925780#1 266925780#2 -419882007 -62073305#4 -62073305#3 -62073305#2 -62073305#1 -62073305#0 -68034420#1 -68034420#0 68034409 419882008 68034422 38820720 4453203#0 4453203#1 -248783828 -4453202 -329163401 -4453205 -110263759#1 119796455#1 727108696 329163399 437045173#1 437045173#2 437045173#3 437045173#4 437045173#6 329163400#1 82433536 329163402#0 329163402#2 248963104#1 119810553#1 119810553#2 119810553#3 -539782979 -557263984#1 -557263984#0 -119810554#4 -119810554#3 -119810554#1 -119810554#0 -557263987#1 -557263990#2 -557263990#1 -557263990#0 4611369#0 4611369#1 4611369#2 4611369#3 4611369#5 4611369#10 4611369#11 4620317 4620318#0 4611371#0 4611403#0 4611403#1 4705777#3                        "></route></vehicle>
    <vehicle type="passenger5b" depart="1120.00" id="a5b14"><route edges="-55914803 4611373#8 4611373#9 -4427335#6 -4427335#4 -4427335#3 -4427335#2 -4427335#1 -4427335#0 557263990#0 557263990#1 557263990#2 557263987#1 557263987#2 119810554#1 119810554#3 119810554#4 557263984#0 557263984#1 539782979 248963106#0 248963106#1 248963106#2 248963106#3 248963106#4 329163403#1 329163403#2 329163403#3 329163403#4 329163403#5 329163403#6 329163403#7 -136781632#0 -329163402#0 -82433536 -329163400#1 -329163400#0 -437045173#5 -437045173#3 -437045173#2 -437045173#1 -437045173#0 -727108696 -82433543#0 110263759#0 110263759#2 329163401 4453202 248783824 68034411#0 68034411#1 23723680 68034422 23723682 38820717 68034416#0 68034416#1 68034416#3 -62836481 -28432039#3 -28432039#2 -28432039#1 -84018136#2 -84018136#1 -84018136#0                        "></route></vehicle>
    <vehicle type="passenger5b" depart="1200.00" id="a5b15"><route edges="200843267#0 200843267#1 200843267#2 200843267#3 200843267#4 4427348#0 4427348#1 4427348#2 -4427345#5 -4427345#4 -4427345#3 -4427345#2 -462397653#4 385545839#5 385545839#6 385545839#7 385545839#9 385545839#10 385545839#11 248963106#0 248963106#1 248963106#2 248963106#3 248963106#4 329163403#1 329163403#2 329163403#3 329163403#4 329163403#5 329163403#6 329163403#7 4427330#0 4427330#1 329163395 103667851 329163422#0 329163422#1 329163422#2 329163422#3 329163422#4 329163414 329163421#0 329163421#1 329163421#2 329163423#0 329163423#1 329163423#2 329163423#3 329163423#5 329163417 329163415 329163419#0 252378479#0 252378479#1 177172368 329163391#0 -204335597#0                        "></route></vehicle>
    <vehicle type="passenger5b" depart="1280.00" id="a5b16"><route edges="4609572#0 -4609571#3 -4609571#2 -4609571#1 -4609571#0 -4609558#10 -4609558#8 -4609558#7 -4609558#6 -4609558#5 -4609558#4 -4609558#3 -4609558#2 -4609558#1 -4609558#0 531527811#12 531527811#13 -4611371#4 -4611371#3 -4611371#2 -4611371#1 -4611371#0 -4620318#0 -131644781 -4611369#11 -4611369#10 -4611369#5 -4611369#3 -4611369#2 -4611369#1 -4611369#0 557263990#0 557263990#1 557263990#2 557263987#1 557263987#2 119810554#1 119810554#3 119810554#4 557263984#0 557263984#1 539782979 248963106#0 248963106#1 248963106#2 248963106#3 248963106#4 329163403#1 329163403#2 329163403#3 329163403#4 329163403#5 329163403#6 329163403#7 -136781632#0 -329163402#0 -82433536 -329163400#1 -329163400#0 -437045173#5 -437045173#3 -437045173#2 -437045173#1 -437045173#0 -727108696 -82433543#0 110263759#0 110263759#2 329163401 4453202 248783824 68034411#0 68034411#1 23723680 68034422 23723682 38820717 68034416#0 68034416#1 68034416#3 -62836481 -28432039#3 -28432039#2 -28432039#1 -84018136#2 -84018136#1 -84018136#0                        "></route></vehicle>
    <vehicle type="passenger5b" depart="1360.00" id="a5b17"><route edges="60251895 32460618 4433351 62073307 4399103#1 387911767#0 387911767#1 387911767#2 4387602#0 4387602#1 4387602#2 4387602#3 4395414 439208434 328962569#0 328962569#1 328962569#2 34706874#0 34706874#1 34706874#2 241955504#0 241955504#1 241955504#2 328962564#0 328962564#1 -328962563#1 -328962563#0 -242045600#2 -242045600#1 -242045600#0 -328962561#0 -242047953 -519317749 -328962562#1 -328962562#0 -245503037#1 -245503037#0 -602257867#5 -602257867#4 -602257867#2 -602257867#1 -602257867#0 -397626754#5 -397626754#4 -397626754#3 -397626754#1 -397626754#0 -242930246#2 -242930246#1 -397626756#0 -458123179#4 -458123179#3 -458123179#2 -458123179#1 -241955498#5 -241955498#4 -241955498#3 -241955498#2 -241955498#1 133039163#0 82433538 80058205#0 110263759#2 329163401 4453202 248783824 68034411#0 68034411#1 23723680 68034422 23723682 38820717 68034416#0 68034416#1 68034416#3 -62836481 -28432039#3 -28432039#2 -28432039#1 -84018136#2 -84018136#1 -84018136#0                        "></route></vehicle>
    <vehicle type="passenger5b" depart="1440.00" id="a5b18"><route edges="63108317#0 -63108317#0 24993799 62836477 62836479#1 62072523#0 62072523#1 32341117 4406208 87059432 64052774 32460618 151288342 156724778 463982793#1 62115073#1 62114271 156517085 156725931 67486811 4399095 328847936 67486819 4399098 328847871 156517059 62072522#1 463981123 179060432 179061345#1 4399101#0 463982792                        "></route></vehicle>
    <vehicle type="passenger5b" depart="1600.00" id="a5b20"><route edges="326272762#1 256078749 32340289#0 32340289#1 385816799#0 147148100 329286231 4442537 156724778 463982793#1 62115073#1 62114271 156517085 156725931 4399104#0 4399104#1 25634944 104043216 659223504 521057237#1 659226747 653971212 -653971214 -521057238#1 653965403#0 653965403#1 641535064#0 641535064#1 657044730#0 -677322182 677322184#1 399370048 399370052                        "></route></vehicle>
    <vehicle type="passenger5b" depart="1680.00" id="a5b21"><route edges="84018136#0 84018136#1 84018136#2 28432039#1 28432039#2 28432039#3 62836481 68034410#0 68034410#1 317794101#1 68034419 23723683 38820721 68034414 23076777 68034420#0 68034420#1 62073305#0 62073305#1 62073305#2 62073305#3 62073305#4 419882007 -266925780#2 -266925780#1 -266925780#0 25745025#0 25745025#2 25745025#3 472350008#0 472350008#1 -304505287#0 -23076776#2 -23076776#1 -23076776#0 -118254791#2 60180154#1                        "></route></vehicle>
    <vehicle type="passenger5b" depart="1840.00" id="a5b23"><route edges="419882010#0 -419882018 -87059422#0 62073787 87059432 64052774 32460618 151288342 156724778 463982793#1 62115073#1 444240350 156517055 156729450 178988487#1 639759316 152597286 178988486#2 152597287#0 152597287#1 152597287#2 152597287#3 152597287#5 152597287#6 219716854 219716857#0 219716857#1 219716856#0 -4609572#2 -4609572#1 -4609571#3 -4609567#5 -4609567#4 -4609567#3 -4609567#2 -4609567#1 -4609567#0                        "></route></vehicle>
    <vehicle type="passenger5b" depart="1920.00" id="a5b24"><route edges="-4441817#2 -4441817#1 -4441817#0 329286257 329286255 329286256#0 329286256#1 385816798#0 385816798#2 328972801#0 328972801#2 328972799#3 156517089#0 328972784#0 328972784#1 325996410 328972785 53376236 326814541#1 326814541#2 326814540 53376237 328972780 62073306 156517063#1 4399070 32341044 4406207 64052771 87059428 32341117 87059422#0 419882020 419882019 60302077#0 60302077#1 60302077#2 540214008 66021171#0 66021171#1 66021171#2 66021171#4 85076013#0 85076013#2 85076013#3 435017532#1 435017532#2 435017532#3 435017532#4 60180154#1                        "></route></vehicle>
    <vehicle type="passenger5b" depart="2080.00" id="a5b26"><route edges="200843277#0 200843277#1 200843277#2 200843277#3 200843277#4 200843267#4 4427348#0 4427348#1 4427348#2 -4427345#5 -4427345#4 -4427345#3 -4427345#2 -462397653#4 385545839#5 385545839#6 385545839#7 385545839#9 385545839#10 385545839#11 -539782979 -557263984#1 -557263984#0 -119810554#4 -119810554#3 -119810554#1 -119810554#0 -557263987#1 -557263990#2 -557263990#1 -557263990#0 4611369#0 4611369#1 4611369#2 4611369#3 4611369#5 4611369#10 4611369#11 4620317 4620318#0 4611371#0 4611403#0 4611403#1 4705777#3                        "></route></vehicle>
    <vehicle type="passenger5b" depart="2240.00" id="a5b28"><route edges="-4432392#1 -4432392#0 -4432390#3 -4432390#2 -4432390#1 -4432383#2 -4432385#0                        "></route></vehicle>
    <vehicle type="passenger5b" depart="2320.00" id="a5b29"><route edges="-109761125#2 -109761125#1 -109761125#0 -672065397 -4627972 200513417 82539934#1 4627957 396321000 542288858 -241957549 -328962568#3 -328962568#2 -328962568#1 -241957560#1 242949070#0 242949070#1 326814543 104841469 256078750#0 256078750#2 442440282 256078751 115670818#0 4396711#0 91395028 328972796#0 328972796#1 328972796#2 329286304#0 329286304#1 -4441825#3 4441829                        "></route></vehicle>
    <vehicle type="passenger5b" depart="2480.00" id="a5b31"><route edges="61236489 -61236489 61236488 -419882009#0 -32040289#0 -419882007 -62073305#4 -62073305#3 -62073305#2 -62073305#1 -62073305#0 -68034420#1 -68034420#0 68034409 419882008 68034422 23723682 4453198#0 4453198#1 68034417 317794132 220173782#1 431726762#1 25116776#0 25116776#2 25116776#3 25116776#4 25116776#5 25116776#8 596568012#1                        "></route></vehicle>
    <vehicle type="passenger5b" depart="2560.00" id="a5b32"><route edges="-4432392#1 -4432392#0 4432390#4 4432374#0 4432374#1 4432374#3 4432374#4 4432374#5 4432374#7 453800738#0 453800738#1 -149149062 4406220 4406222 28409487 34075504#0 34075504#1 4405120#1 4405120#2 34074851 328972803#0 328972803#1 4432768#0 51733196#0 326272762#1 256078749 32340289#0 32340289#1 385816799#0 147148100 329286231 4442537 156724778 463982793#1 62115073#1 62114271 156517085 156725931 4399104#0 4399104#1 25634944 104043216 659223504 521057237#1 659226747 653971212 -653971214 -521057238#1 653965403#0 653965403#1 641535064#0 641535064#1 657044730#0 -677322182 677322184#1 399370048 399370052                        "></route></vehicle>
    <vehicle type="passenger5b" depart="2640.00" id="a5b33"><route edges="-596568012#1 -25116776#8 -25116776#6 -25116776#4 -25116776#3 -25116776#2 -25116776#0 -431726762#1 220173775#1 431726761 265319793 116353640#0 116353640#1 116353640#2 116353640#3 38820340#1 38820340#3 38820340#5 -288248504 288248505#0 288248505#1 293803042#2 288671398#0 288671398#1 -262771814#2 -262771814#1 -293803044#1 -293803044#0 -304505287#0 -23076776#2 -23076776#1 -23076776#0 -118254791#2 60180154#1                        "></route></vehicle>
    <vehicle type="passenger5b" depart="2800.00" id="a5b35"><route edges="317794120 317794119 67354201 460792168 460792169 317794121#0 317794121#1 460792170 66310445#0 66310445#1 117813684 -317794135#0 -35156858#1 -444098637 -220173782#1 -317794132 -68034417 68034415#0 68034415#1 68034423 68034419 23723683 4453203#0 4453203#1 -248783828 -4453202 -329163401 -4453205 -110263759#1 82433551#0 82433551#1 133039173#1 241955498#1 241955498#2 241955498#3 241955498#4 241955498#5 458123179#0 458123179#2 458123179#3 458123179#4 397626756#0 241955501 172207939#3 172207939#5 199402826#0 199402826#1 199402826#2 199402826#3 199402826#4 4628048                        "></route></vehicle>
    <vehicle type="passenger5b" depart="2880.00" id="a5b36"><route edges="328847934#0 328847934#3 328847928#1 328847922#2 328847905#0 328847935 67486821 4399104#0 4399104#1 25634944 104043216 458657025#0 458657025#1 531527813 138011859#0 458648634#1 458651454#0 458651454#1 639360272#1 639360276#0 639360276#1 639360276#2 639360276#3 639360257 4427354#0 4427354#1 385545839#0 385545839#1 385545839#3 385545839#4 385545839#5 385545839#6 385545839#7 385545839#9 385545839#10 385545839#11 248963106#0 248963106#1 248963106#2 248963106#3 248963106#4 329163403#1 329163403#2 329163403#3 329163403#4 329163403#5 329163403#6 329163403#7 -136781632#0 -329163402#0 -82433536 -329163400#1 -329163400#0 -437045173#5 -437045173#3 -437045173#2 -437045173#1 -437045173#0 -727108696 -82433543#0 110263759#0 110263759#2 329163401 4453202 248783824 68034411#0 68034411#1 23723680 68034422 23723682 4453198#0 4453198#1 68034417 317794132 220173782#1 317794133#2 35156858#1 317794135#0 117813683 117813687#0 117813687#1 -117813685 -84033910#1 -84033910#0 -460792170 -317794121#1 -317794121#0 -460792169 -460792168 -67354201 -317794119 -317794120                        "></route></vehicle>
    <vehicle type="passenger5b" depart="2960.00" id="a5b37"><route edges="-208342250#1 -208342250#0 -4624456#1 -4624456#0 -38820724#3 -38820724#1 -329163390 -329163386 -329163388#1 -329163388#0 -110263757#0 4427341#1 329163387#0 329163387#1 110263759#0 110263759#2 329163401 4453202 248783824 68034411#0 68034411#1 23723680 68034422 23723682 38820717 68034416#0 68034416#1 68034416#3 -62836481 -28432039#3 -28432039#2 -28432039#1 -84018136#2 -84018136#1 -84018136#0                        "></route></vehicle>
    <vehicle type="passenger5b" depart="3040.00" id="a5b38"><route edges="-208342250#1 -208342250#0 -4624456#1 -4624456#0 -38820724#3 -38820724#1 -329163390 -329163386 -329163388#1 -329163388#0 -110263757#0 4427341#1 329163387#0 329163387#1 82433551#0 82433551#1 133039173#1 241955498#1 241955498#2 241955498#3 241955498#4 241955498#5 458123179#0 458123179#2 458123179#3 458123179#4 397626756#0 242930246#1 242930246#2 397626754#0 397626754#1 397626754#3 397626754#4 397626754#5 602257867#0 602257867#1 602257867#2 602257867#4 602257867#5 245503037#0 245503037#1 328962562#0 328962562#1 328962562#2 242047953 328962561#0 328962561#1 242045600#1 242045600#2 328962563#0 328962563#1 242949070#0 242949070#1 326814543 104841469 256078750#0 256078750#2 442440282 256078751 115670818#0 4395415#0 4395415#1 4395415#2 328972784#0 328972784#1 325996410 328972785 104728237#0 104728237#1 104728237#2 104728237#3 289112669#0 289112669#1 289112669#2 328972805#0 328972805#1 132314084#0 132314084#1 149149062 -453800738#1 -453800738#0 -454027479 -4432374#5 -4432374#4 -4432374#3 -4432374#2 -4432374#0 -4432390#4 4432392#0 4432392#1                        "></route></vehicle>
    <vehicle type="passenger5b" depart="3120.00" id="a5b39"><route edges="4567395 589943086 -589943087 -4567401#1 590035773 457679900#1 328847941#0 328847941#1 328847941#2 458961306 -535301458 -385836126#1 4399110 653890304 653999909 531527809#0 531527809#1 222826764 641535063#1 328852474 659223380 4386508#0 4386508#1 641535062#0 641535062#1 653817485#0 653817485#1 531527813 138011859#0 458648634#1 458651454#0 458651454#1 639360272#1 639360276#0 639360276#1 639360276#2 639360276#3 639360257 4427354#0 4427354#1 385545839#0 385545839#1 385545839#3 385545839#4 385545839#5 385545839#6 385545839#7 385545839#9 385545839#10 385545839#11 248963106#0 248963106#1 248963106#2 248963106#3 248963106#4 329163403#1 329163403#2 329163403#3 329163403#4 329163403#5 329163403#6 329163403#7 4427330#0 4427330#1 329163395 103667851 329163422#0 329163422#1 329163422#2 4624428                        "></route></vehicle>
    <vehicle type="passenger5b" depart="3200.00" id="a5b40"><route edges="241958095 -241953984#1 -241953984#0 172205449#1 4427359#1 4427359#2 4628035#0 4628035#1 4628031#0 4628031#1 4628031#2 4628031#3 -97166541#4 -97166541#3 -97166541#0 -241955501 242930246#1 242930246#2 397626754#0 397626754#1 397626754#3 397626754#4 397626754#5 602257867#0 602257867#1 602257867#2 602257867#4 602257867#5 245503037#0 245503037#1 328962562#0 328962562#1 328962562#2 242047953 328962561#0 328962561#1 242045600#1 242045600#2 328962563#0 328962563#1 242949070#0 242949070#1 326814543 104841469 256078750#0 256078750#2 442440282 256078751 115670818#0 4395415#0 4395415#1 4395415#2 328972784#0 328972784#1 325996410 328972785 53376236 326814541#1 326814541#2 326814540 53376237 328972780 62073306 156517063#1 4399070 32341044 32460642                        "></route></vehicle>
    <vehicle type="passenger5b" depart="3280.00" id="a5b41"><route edges="-329286298 -329286300 -329286297 -457627968 4442538#1 329286299 4399100 216165774#0 216165774#1 666512604 32341044 32460642                        "></route></vehicle>
    <vehicle type="passenger5b" depart="3360.00" id="a5b42"><route edges="227562699#0 227562699#1 227562699#2 227562699#3 227562699#4 227562699#6 328847905#0 328847935 67486821 4399104#0 4399104#1 25634944 104043216 458657025#0 458657025#1 531527813 138011859#0 458648634#1 458651454#0 458651454#1 639360272#1 639360276#0 639360276#1 639360276#2 639360276#3 639360257 4427354#0 4427354#1 385545839#0 385545839#1 385545839#3 385545839#4 385545839#5 385545839#6 385545839#7 385545839#9 385545839#10 385545839#11 248963106#0 248963106#1 248963106#2 248963106#3 248963106#4 329163403#1 329163403#2 329163403#3 329163403#4 329163403#5 329163403#6 329163403#7 -136781632#0 -329163402#0 -82433536 -329163400#1 -329163400#0 -437045173#5 -437045173#3 -437045173#2 -437045173#1 -437045173#0 -727108696 -82433543#0 110263759#0 110263759#2 329163401 4453202 248783824 68034411#0 68034411#1 23723680 68034422 23723682 4453198#0 4453198#1 68034417 317794132 220173782#1 317794133#2 35156858#1 317794135#0 117813683 117813687#0 117813687#1 35156859#0 35156859#1 66310448 164600250 -320744211 -320744210#1 -320744210#0 64051644 164600251 320744213#0 320744213#1 320744213#2                        "></route></vehicle>
    <vehicle type="passenger5b" depart="3440.00" id="a5b43"><route edges="-241953965#3 -241953965#2 -241953965#1 -241953965#0 241953986 245522976#0 245522976#1 245522976#2 172207885#1 172207935#0 172207935#1 172207935#2 172207935#3 172207935#4 172207935#5 586078399#1 557289881#0 557289881#1 25520874#0 25520874#1 25520874#2 119810562#6 119810562#7 119810570#0 119810570#1 119810570#2 458648630#0 458648630#1 458648630#2 638458256 551284434#1 551284434#2 551284437#0 551284437#1 653965403#0 653965403#1 641535064#0 641535064#1 657044730#0 -677322182 677322184#1 399370048 399370052                        "></route></vehicle>
    <vehicle type="passenger5b" depart="3520.00" id="a5b44"><route edges="4609567#0 4609567#1 4609567#2 4609567#3 4609567#4 4609567#5 4609571#3 4609572#1 4609572#2 -219716856#0 -219716857#1 -219716857#0 -219716854 -152597287#6 -152597287#5 -152597287#3 -152597287#2 -152597287#1 -152597287#0 583097252#1 328847950 385836126#0 535301458 583922141 328847940 653805453 638446703 -4399112 156729452 288356688 156729446 156517058 179060432 179061345#1 4399101#0 4399101#1 329286271 53376240 463983939#0 89972201#1 329286297 329286300 4441825#0 4441825#1 4441829                        "></route></vehicle>
    <vehicle type="passenger5b" depart="3600.00" id="b5b0"><route edges="-4441817#2 -4441817#1 -4441817#0 329286257 329286255 329286256#0 329286256#1 -4441825#3 -4441825#1 -4441825#0 -329286300 -329286297 -457627968 4442538#1 329286299 180166725 463981127 4442537 156724778 463982793#1 62115073#1 62114271 156517085 156725931 4399104#0 4399104#1 25634944 104043216 659223504 521057237#1 659226747 653971212 -653971214 -521057238#1 -521057238#0 -659226748 -328852473 -260136547#1 -260136547#0 -170598141#2 -170598141#1 -170598141#0 -4427335#6 -4427335#4 -4427335#3 -4427335#2 -4427335#1 -4427335#0 -597799270#1 -597799270#0 -329163393#1 -329163393#0 -329163392#1 -329163392#0 -4624406#1 -4624406#0 4427332#0 4427332#1 4427332#2 329163394#0 329163394#1 329163394#2 -34074419 4427331#2 329163407#0 329163407#1 329163407#2 329163405#0 329163405#1 329163421#0 329163421#1 329163421#2 329163423#0 329163423#1 329163423#2 329163423#3 329163423#5 329163417 329163415 329163419#0 252378479#0 252378479#1 177172368 329163391#0 177172372#0 177172372#1 177172372#2 177172372#3 177172372#4                       "></route></vehicle>
    <vehicle type="passenger5b" depart="4050.00" id="b5b5"><route edges="317794125#0 317794125#1 37833219#1 62072527#0 62072527#1 4406216 59164973 79085682 32089657#0 32089657#1 -64052827#0 -64052828#1 -64052828#0 -32040298#3 -32040298#2 -32040298#1 -292766807#0 -278544265 -219662934#0 288248508#0 288248508#1 293803042#0 288248506#0 288248506#1 288248504 243480577 -38820340#3 -38820340#1 -116353640#3 -116353640#2 -116353640#1 -116353640#0 -265319793 -431726761 -220173775#1 431726762#1 25116776#0 25116776#2 25116776#3 25116776#4 25116776#5 25116776#8 596568012#1                       "></route></vehicle>
    <vehicle type="passenger5b" depart="4140.00" id="b5b6"><route edges="84018136#0 84018136#1 84018136#2 28432039#1 28432039#2 28432039#3 62836481 68034410#0 68034410#1 317794101#1 68034419 38820719 4453198#0 4453198#1 68034417 317794132 220173782#1 317794133#2 -219662933#0 -536569901#4 -536569901#3 -536569901#2 -536569901#1 -536569901#0 -24907061#3 -288319660 -187913310                       "></route></vehicle>
    <vehicle type="passenger5b" depart="4320.00" id="b5b8"><route edges="-70881805#3 -70881805#2 -70881805#1 -70881805#0 122124831#0 122124831#1 19913820 62073305#0 62073305#1 62073305#2 62073305#3 62073305#4 419882007 32040289#0 419882009#0 419882009#1 23076778#1 397626752#0 18921550#1 425873849#1 425873848#1 425873848#2 425873848#3 67022241#0 24646013#1 24646013#2 -243480578#3 -243480578#2 -243480578#0 -85076013#3 -85076013#2 -85076013#0 -66021171#4 -66021171#2 -66021171#1 -66021171#0 -613501578 -60302077#2 -60302077#1 -60302077#0 -520786903 -419882020 -87059422#0 62073787 87059432 64052774 32460618 4433351 62073307 4399103#1 51732984#1 328972785 104728237#0 104728237#1 104728237#2 104728237#3 289112669#0 289112669#1 289112669#2 328972805#0 328972805#1 132314084#0 132314084#1 149149062 -453800738#1 -453800738#0 -454027479 -4432374#5 -4432374#4 -4432374#3 -4432374#2 -4432374#0 -4432390#4 4432392#0 4432392#1                       "></route></vehicle>
    <vehicle type="passenger5b" depart="4410.00" id="b5b9"><route edges="-596568012#1 -25116776#8 -25116776#6 -25116776#4 -25116776#3 -25116776#2 -25116776#0 -431726762#1 -220173782#1 -317794132 -68034417 68034415#0 68034415#1 68034423 68034419 23723683 4453203#0 4453203#1 -248783828 -4453202 -329163401 -4453205 -110263759#1 119796455#1 727108696 329163399 437045173#1 437045173#2 437045173#3 437045173#4 437045173#6 329163400#1 82433536 329163402#0 329163402#2 248963104#1 119810553#1 119810553#2 119810553#3 119810565#1 119810565#2 119810565#3 119810565#4 119810565#5 119810565#6 119810565#8 119810565#9 119810562#0 119810562#1 119810562#2 119810562#3 119810562#4 119810562#5 119810562#6 119810562#7 119810570#0 119810570#1 119810570#2 458648630#0 458648630#1 458648630#2 638458256 551284434#1 551284434#2 551284437#0 551284437#1 653965403#0 653965403#1 641535065 -641535063#1 -641535063#0 -531527809#1 -531527809#0 -653999909 -653890304 -4399110 385836126#0 535301458 583922141 328847940 653805453 638446703 -328847941#2 -328847941#1 -328847941#0 -457679900#1 -531527808#2 -531527808#1 -531527808#0                       "></route></vehicle>
    <vehicle type="passenger5b" depart="4500.00" id="b5b10"><route edges="-4441817#2 -4441817#1 -4441817#0 329286257 329286255 329286256#0 329286256#1 -4441825#3 -4441825#1 -4441825#0 -329286300 -329286297 -457627968 4442538#1 329286299 180166725 463981127 4442537 156724778 463982793#1 62115073#1 444240350 156517055 156729447 4396732                       "></route></vehicle>
    <vehicle type="passenger5b" depart="4590.00" id="b5b11"><route edges="93248849#0 93248849#1 58950788#2 58950788#3 672889052#0 672889052#1 171575216 22819689#0 22819689#1 22819692 22819691#0 -397626752#0 -397626751 -23076778#0 -419882009#0 -32040289#0 -266925780#2 -266925780#1 -266925780#0 25745025#0 60418182 60418432#0 60418432#1                       "></route></vehicle>
    <vehicle type="passenger5b" depart="4680.00" id="b5b12"><route edges="60251895 32460618 4433351 62073307 4399103#1 387911767#0 387911767#1 387911767#2 4387602#0 4387602#1 4387602#2 4387602#3 4395414 439208434 328962569#0 328962569#1 328962569#2 4427352#0 4427352#1 243122790 58950779 84033917 480884810 79085675#2 452730845 484029325 328962566#1 328962566#2 328852476#0 328852476#1 639360257 4427354#0 4427354#1 385545839#0 385545839#1 385545839#3 385545839#4 462397653#4 4427345#2 4427345#3 4427345#4 4427345#5 4427345#6 4427345#7 4427345#8 -172205449#1 241953984#0 241953984#1 241953984#2 245520879                       "></route></vehicle>