<?xml version="1.0" encoding="UTF-8"?>

<!-- generated on Thu Oct 31 14:50:31 2019 by Eclipse SUMO Version 1.0.1
-->

<configuration xmlns:xsi="http://www.w3.org/2001/XMLSchema-instance" xsi:noNamespaceSchemaLocation="http://sumo.dlr.de/xsd/sumoConfiguration.xsd">

    <input>
        <net-file value="UlmScenario.net.xml"/>
        <route-files value="UlmScenario.0.rou.xml,UlmScenario.1.rou.xml,UlmScenario.2.rou.xml,UlmScenario.3.rou.xml,UlmScenario.4.rou.xml,UlmScenario.5.rou.xml,UlmScenario.6.rou.xml,UlmScenario.7.rou.xml,UlmScenario.8.rou.xml,UlmScenario.9.rou.xml,UlmScenario.10.rou.xml,UlmScenario.11.rou.xml,UlmScenario.12.rou.xml,UlmScenario.13.rou.xml,UlmScenario.14.rou.xml"/>
        <additional-files value="UlmScenario.poly.xml"/>
    </input>

    <time>
        <begin value="0"/>
        <end value="86400"/>
        <step-length value="0.1"/>
    </time>

    <gui_only>
        <gui-settings-file value="gui-settings.cfg.xml"/>
        <start value="true"/>
    </gui_only>

</configuration>
