<?xml version="1.0" encoding="UTF-8"?>

<!-- generated on Thu Oct 31 14:44:08 2019 by Eclipse SUMO polyconvert Version 1.0.1
<configuration xmlns:xsi="http://www.w3.org/2001/XMLSchema-instance" xsi:noNamespaceSchemaLocation="http://sumo.dlr.de/xsd/polyconvertConfiguration.xsd">

    <input>
        <net-file value="/home/joseph/Projects/F2MD/osm2sumo/UlmScenario/UlmScenario.net.xml"/>
        <osm-files value="/home/joseph/Projects/F2MD/osm2sumo/UlmScenario/UlmScenario_bbox.osm.xml"/>
        <osm.keep-full-type value="false"/>
        <type-file value="/home/joseph/Projects/F2MD/osm2sumo/typemap/Polyconvert.typ.xml"/>
    </input>

    <output>
        <output-file value="/home/joseph/Projects/F2MD/osm2sumo/UlmScenario/UlmScenario.poly.xml"/>
    </output>

    <processing>
        <poi-layer-offset value="5"/>
    </processing>

</configuration>
-->

<additional xmlns:xsi="http://www.w3.org/2001/XMLSchema-instance" xsi:noNamespaceSchemaLocation="http://sumo.dlr.de/xsd/additional_file.xsd">
    <location netOffset="-570294.02,-5358180.16" convBoundary="-696.75,-1034.95,7160.31,6281.60" origBoundary="9.940245,48.363334,10.046225,48.452981" projParameter="+proj=utm +zone=32 +ellps=WGS84 +datum=WGS84 +units=m +no_defs"/>

    <poly id="100189595" type="water" color="181,209,209" fill="0" layer="-4.00" shape="3796.798927,3401.635289 3862.619498,3421.561547 3925.180897,3439.355907"/>
    <poly id="10101520" type="water" color="181,209,209" fill="1" layer="-4.00" shape="5001.928369,4058.713854 4982.701120,3820.540777 4978.645453,3782.588635 4972.077868,3761.556771 4951.932356,3714.508486 4861.845852,3561.787194 4717.724152,3389.475503 4520.721488,3207.798422 4510.302144,3198.544938 4490.637244,3182.521505 4293.795592,3061.798678 4251.915610,3042.804722 4088.165563,2948.427173 4051.498704,2926.390339 4034.930800,2917.913170 4022.137989,2910.597230 3962.869386,2866.486501 3927.444861,2840.520206 3846.292761,2782.116875 3819.817705,2761.248728 3765.705481,2713.216510 3732.843508,2709.719153 3734.985323,2713.515792 3734.999273,2717.551464 3734.646166,2720.781916 3732.879710,2723.960569 3730.226027,2726.482852 3725.854057,2727.359620 3720.927655,2727.039630 3709.248071,2717.182024 3642.870980,2661.475860 3616.150551,2642.862259 3450.332004,2570.955387 3448.781229,2574.637195 3395.144999,2549.426981 3380.541450,2526.358403 3334.458319,2501.547063 3281.989517,2485.558003 3278.054846,2484.106215 3217.627180,2461.811222 3153.889348,2434.393538 3084.062912,2403.140259 3064.328362,2392.557269 3017.704863,2367.552586 2997.133875,2342.039995 2953.674211,2288.128049 2911.646864,2228.153945 2892.528322,2200.170298 2867.833276,2149.313819 2856.496403,2110.380385 2847.065878,2079.775960 2812.742021,1990.619835 2801.847849,1964.965935 2789.954771,1936.953504 2746.635687,1834.919652 2731.788328,1799.954555 2657.045788,1637.174055 2654.323047,1631.247042 2645.960325,1613.041067 2562.921915,1527.318252 2540.698582,1506.677718 2476.127655,1446.717938 2255.838383,1299.754158 2091.989888,1186.313995 1824.218855,985.233910 1756.817796,934.229182 1712.551356,880.828514 1676.275680,892.752559 1700.895188,924.003279 1737.522616,959.030653 1506.880761,815.500697 1484.590448,855.839910 1827.803095,1048.156851 2055.412800,1219.053796 2233.042529,1344.019481 2462.716930,1512.002670 2533.562935,1578.579651 2583.174100,1642.594636 2632.088788,1724.988624 2650.958707,1764.474188 2707.862497,1883.546526 2740.286490,1965.173516 2759.746117,2055.905316 2775.180890,2118.770632 2785.861393,2147.200988 2797.563314,2176.222614 2809.570905,2201.624066 2817.599622,2212.889017 2821.389167,2218.729823 2822.283932,2223.410497 2822.778088,2235.045251 2827.370389,2242.363853 2877.145077,2327.417169 2934.724471,2384.156655 3002.924394,2441.089585 3028.481180,2457.161617 3029.678280,2457.910816 3037.940104,2463.109226 3045.794425,2466.612592 3069.776243,2477.361633 3121.475775,2497.918969 3149.266190,2508.973346 3151.851129,2511.174640 3152.062010,2513.756519 3160.648024,2520.204417 3163.518871,2520.908621 3165.954098,2519.806227 3173.032001,2521.509876 3221.377735,2540.868528 3297.945099,2569.932036 3356.167433,2591.476676 3373.609622,2594.349066 3389.998772,2596.785382 3421.794252,2608.348954 3470.255945,2629.490000 3502.423924,2643.693616 3522.505642,2652.503966 3529.650692,2655.854262 3576.120419,2685.497075 3619.515520,2715.845050 3669.972121,2748.519990 3680.034985,2755.188067 3690.338162,2761.025519 3709.827329,2771.507494 3730.415827,2781.136757 3738.349125,2786.465332 3746.622901,2794.066242 3746.549903,2797.956258 3748.929842,2802.789898 3755.202598,2809.986716 3762.790842,2818.490298 3765.191226,2821.189739 3769.621317,2825.494310 3791.764156,2841.925508 3803.685428,2850.819269 3817.100085,2860.432947 3836.413891,2874.092559 3840.539131,2876.792347 3867.587624,2894.521979 3901.734417,2916.858141 3927.543458,2937.062076 3940.454898,2944.368237 3954.638464,2949.501024 3974.909931,2963.473824 3990.513770,2976.596241 4009.855724,2988.611508 4109.776496,3047.608170 4295.929525,3151.697256 4377.588553,3204.588768 4402.837163,3237.327644 4420.916457,3260.767213 4486.023944,3328.005681 4503.128229,3335.524104 4518.598082,3338.996625 4530.094465,3331.121779 4544.871130,3337.197742 4556.299948,3346.220049 4683.908117,3468.526667 4733.227341,3514.036627 4828.381316,3645.511391 4866.411790,3733.295952 4873.809337,3750.380992 4880.452761,3765.721772 4892.770188,3794.144844 4922.425494,3903.252599 4923.503895,4059.618211 5001.928369,4058.713854"/>
    <poly id="101887803" type="residential" color="235,235,227" fill="1" layer="-3.00" shape="3991.310189,4020.333487 3989.455204,4075.472166 4057.088564,4119.059593 4179.855506,4191.831705 4245.228043,4225.897742 4305.285976,4242.507454 4332.577377,4217.564155 4334.357219,4082.370241 4366.730225,3972.881714 4366.177873,3954.686859 4357.692244,3936.387529 4330.982204,3917.058970 4252.893904,3884.403437 4237.138664,3876.280909 4113.207259,3771.063906 4103.281341,3771.622900 4011.995493,3875.937943 3973.961815,3842.855382 3990.703970,3823.708777 3973.571414,3808.809761 4005.297325,3772.550208 3961.619124,3734.646788 3974.976494,3719.068852 3995.524060,3737.736835 4024.609383,3705.322643 3978.100179,3667.648809 3957.657148,3706.535387 3937.630412,3730.608418 3853.440924,3807.537460 3800.846786,3852.574353 3794.293986,3861.804821 3818.442817,3931.691135 3800.066499,3941.723103 3725.377585,3891.721108 3721.247955,3901.316809 3749.860263,3919.666754 3777.658555,3957.249871 3857.224238,4058.710644 3897.568077,4006.265615 3934.739616,4016.390736 3991.310189,4020.333487"/>
    <poly id="101893121" type="commercial" color="209,209,204" fill="0" layer="-3.00" shape="2119.883079,3609.213976 2109.161407,3427.480967 2099.460797,3386.602214 2091.861532,3341.725959 2060.538188,3316.501926 2027.687243,3292.047894 1995.763722,3274.954210 1990.544580,3243.048634 2014.897939,3244.281857 2034.897928,3240.345838 2050.974693,3230.601234 2064.153968,3212.982224 2063.631492,3191.275202 2051.973125,3141.322356 2047.954068,3109.943422 2042.032567,3106.410498 2006.782503,3108.028692 2001.157362,3102.731990 1982.561667,3112.033304 1958.216770,3127.520277 1921.230643,3124.803491 1861.727167,3092.874002 1751.468326,3041.834781 1722.959130,3030.266735 1693.547928,3027.347500 1688.513875,3032.608622 1660.710360,3030.754960 1635.214508,3024.973067 1564.154916,2988.775802 1511.822707,2967.857796 1450.607109,2940.468989 1405.998178,2922.251065 1362.097356,2918.861339 1361.238432,2907.744654 1353.907840,2906.707090 1216.078282,2892.772063 1166.219571,2889.242033 1116.656918,2889.240239 1091.317224,2893.312391 1067.412540,2889.832081 1044.024585,2893.528795 979.186481,2918.527026 949.997787,2861.297144 919.521809,2744.998151 839.586696,2601.275906 745.506395,2614.804349 755.797612,2634.843665 761.434626,2645.819985 755.721489,2649.783848 690.053809,2695.408009 562.871748,2779.195412 553.880287,2765.898418 481.059654,2826.132135 470.694429,2817.909674 441.287012,2831.183235 430.358664,2802.220795 345.180501,2869.894962 359.828605,2888.498156 354.603640,2896.103723 340.532444,2903.098840 357.474870,2944.320160 522.586679,3123.416551 563.330121,3134.119749 563.738808,3135.180963 580.654878,3178.915111 573.749633,3220.861876 583.723065,3272.791385"/>
    <poly id="102660264" type="commercial" color="209,209,204" fill="0" layer="-3.00" shape="583.723065,3272.791385 619.038849,3266.963005 651.275653,3264.064537 795.025796,3268.010541 802.312192,3264.866872 864.532874,3277.586967 917.721666,3285.647485 937.010843,3284.589092 986.224585,3276.147251 1016.819082,3270.828953 1015.162452,3260.113622 1060.269527,3258.035247 1115.116613,3255.501804 1132.758638,3255.346036 1154.605230,3256.955313 1182.849683,3263.092099 1250.480093,3283.499754 1273.890189,3292.010614 1296.912922,3303.640546 1329.713360,3324.120885 1344.486856,3324.251938 1390.421085,3324.643495 1406.687305,3351.318644 1475.211559,3373.485691 1548.908618,3397.475600 1570.278975,3403.905222 1779.457757,3506.012837 1827.368475,3530.145611 1910.438394,3575.815374 1939.719992,3592.163472 2000.777790,3612.040702 2046.000175,3616.419546 2073.299696,3616.934693 2119.883079,3609.213976"/>
    <poly id="102660268" type="landuse" color="194,194,130" fill="1" layer="-3.00" shape="2511.218240,2724.531933 2517.149298,2682.930459 2521.382824,2666.298203 2531.762406,2636.882505 2527.451886,2634.714926 2522.626354,2632.296163 2518.183445,2630.060189 2513.416694,2627.675540 2508.907587,2625.405373 2506.987618,2624.446899 2504.670500,2623.283221 2501.183863,2621.526450 2497.344060,2619.598392 2491.804918,2616.825871 2470.627077,2606.193076 2461.981244,2598.589302 2406.102352,2596.138473 2404.952384,2625.783860 2379.620751,2625.003400 2374.314021,2723.687617 2354.988407,2722.784114 2352.207016,2824.324424 2354.569631,2915.547375 2345.948138,2961.550218 2339.691617,2998.623069 2333.805007,3184.835158 2334.026176,3190.685531 2325.407504,3287.370841 2309.246594,3344.705467 2219.106607,3311.212624 2189.042022,3326.525409 2177.797912,3351.995231 2177.233181,3396.178061 2178.116960,3435.910377 2180.223196,3587.895515 2169.796647,3593.454144 2137.411819,3604.524176 2119.883079,3609.213976 2073.299696,3616.934693 2046.000175,3616.419546 2000.777790,3612.040702 1939.719992,3592.163472 1910.438394,3575.815374 1827.368475,3530.145611 1779.457757,3506.012837 1570.278975,3403.905222 1548.908618,3397.475600 1475.211559,3373.485691 1406.687305,3351.318644 1390.421085,3324.643495 1344.486856,3324.251938 1329.713360,3324.120885 1296.912922,3303.640546 1273.890189,3292.010614 1250.480093,3283.499754 1182.849683,3263.092099 1154.605230,3256.955313 1132.758638,3255.346036 1115.116613,3255.501804 1060.269527,3258.035247 1015.162452,3260.113622 1016.819082,3270.828953 986.224585,3276.147251 937.010843,3284.589092 917.721666,3285.647485 864.532874,3277.586967 802.312192,3264.866872 795.025796,3268.010541 651.275653,3264.064537 619.038849,3266.963005 583.723065,3272.791385 532.994286,3281.684691 428.495182,3302.414050 318.303699,3324.397337 223.378233,3345.661001 191.979901,3355.008998 119.525718,3383.668595 51.607665,3410.117532 37.876902,3415.461175 32.426843,3420.996490 14.669775,3426.901678 9.560083,3453.941317 93.692115,3431.350615 193.084009,3405.526828 256.149588,3391.358957 466.887738,3357.265889 494.639762,3341.192612 643.898653,3332.441376 674.738532,3332.894001 732.382138,3333.949297 779.785598,3340.535328 819.124364,3347.987778 844.176727,3356.017193 867.587664,3365.660308 904.382309,3381.163439 905.551333,3392.406225 972.547910,3421.962983 1209.400660,3530.878457 1331.882095,3586.052674 1430.614021,3631.412967 1533.246293,3667.341656 1659.906691,3703.632725 1725.067244,3714.576550 1805.161936,3723.398700 1814.261765,3724.915174 1937.632660,3746.118277 1982.798800,3745.537745 2012.255794,3742.244757 2030.286845,3740.495929 2072.303768,3728.592185 2168.746927,3688.324302 2236.522174,3653.371992 2268.371088,3642.529125 2299.069587,3640.031691 2330.964298,3645.854148 2364.672852,3651.644446 2490.229676,3680.158119 2556.289445,3716.091886 2581.538922,3728.067029 2659.218563,3770.899435 2737.135210,3816.504129 2840.608560,3852.378650 2899.171152,3868.442599 3011.268134,3909.845629 3061.040606,3927.309535 3123.986279,3952.315078 3189.768891,3986.251747 3220.513241,4009.229091 3224.058175,3994.422683 3226.890916,3982.597527 3170.705399,3956.889114 3108.884575,3919.913437 3123.611291,3898.970637 3187.903864,3889.164618 3452.301657,3831.665298 3507.908295,3823.384103 3492.405821,3815.656061 3450.499948,3821.658743 3387.293666,3828.652198 3237.882003,3861.075080 3185.885445,3876.998640 3141.375484,3883.536805 3124.163720,3871.174062 3111.047949,3877.452105 3091.499118,3878.088376 3066.978258,3876.859411 3032.909827,3872.716674 2997.464281,3866.310696 2956.592153,3851.963960 2924.098998,3839.882439 2886.038553,3824.438597 2875.989083,3820.829251 2870.150411,3818.430437 2866.553934,3817.794820 2850.206231,3812.981426 2809.716697,3801.053099 2796.886234,3797.274631 2765.787339,3786.657222 2725.760285,3765.230407 2698.035133,3747.808745 2680.764380,3735.324335 2683.688279,3726.112609 2760.485186,3755.828083 2808.675479,3774.458856 2865.651498,3796.527410 2893.746680,3727.319652 2678.407448,3647.580699 2586.620628,3610.291975 2549.318891,3578.818357 2515.832085,3508.473330 2494.263191,3436.313805 2495.661253,3311.265420 2465.948367,3303.146622 2465.453556,3263.252461 2464.444403,3182.674589 2474.000922,3014.252362 2477.004621,2948.633909 2493.809914,2948.582784 2500.616394,2849.717745 2504.728818,2790.027790 2511.218240,2724.531933"/>
    <poly id="102660270" type="residential" color="235,235,227" fill="1" layer="-3.00" shape="2680.764380,3735.324335 2683.688279,3726.112609 2760.485186,3755.828083 2808.675479,3774.458856 2865.651498,3796.527410 2893.746680,3727.319652 2678.407448,3647.580699 2586.620628,3610.291975 2549.318891,3578.818357 2515.832085,3508.473330 2494.263191,3436.313805 2495.661253,3311.265420 2465.948367,3303.146622 2465.453556,3263.252461 2464.444403,3182.674589 2474.000922,3014.252362 2477.004621,2948.633909 2493.809914,2948.582784 2500.616394,2849.717745 2504.728818,2790.027790 2511.218240,2724.531933 2517.149298,2682.930459 2558.068153,2715.128282 2563.795908,2721.649724 2569.411765,2724.779049 2583.544285,2728.829359 2591.985708,2716.019889 2600.393757,2702.353994 2625.671930,2692.295685 2629.912899,2658.988097 2627.648199,2633.023015 2640.210949,2594.508518 2643.964641,2550.744696 2644.775953,2541.772595 2644.866825,2538.160739 2695.168497,2533.938630 2726.919681,2532.968834 2744.177881,2539.238712 2763.645599,2553.296775 2770.812780,2548.075176 2808.487747,2520.601395 2804.362436,2516.701740 2816.182636,2506.037252 2838.257740,2486.111142 2852.248881,2446.048003 2844.196857,2440.641351 2857.378615,2411.106709 2883.489064,2376.847407 2902.183659,2413.541307 2966.487139,2447.711461 3021.924805,2478.677219 3040.473897,2492.746600 3077.475177,2515.192385 3117.561292,2540.090741 3159.740612,2563.971499 3168.350296,2568.585409 3225.484786,2589.558754 3259.897622,2600.844063 3262.787451,2601.793140 3308.408046,2606.298213 3365.306459,2609.471554 3401.316479,2614.041553 3439.319729,2627.586909 3474.539807,2642.219143 3511.909721,2661.737725 3505.049416,2677.467997 3528.202013,2690.364935 3543.757183,2705.086297 3595.932917,2739.383803 3624.174166,2753.748197 3652.508953,2763.767188 3669.956611,2759.358911 3695.566269,2774.534241 3692.441853,2781.363815 3695.237058,2798.064743 3691.915924,2838.131735 3713.472248,2847.328887 3778.556325,2905.453708 3817.351639,2956.176345 3861.970381,2909.678894 3934.866163,2961.860042 3990.636468,2998.876453 4044.816224,3031.803732 4091.721865,3063.335421 4110.913382,3080.007127 4150.133601,3105.379672 4165.797407,3109.365142 4291.398487,3180.442023 4335.708547,3211.007821 4367.347883,3236.282146 4371.973322,3246.492956 4348.450104,3259.812799 4256.642432,3309.965918 4118.015709,3381.562138 4108.028726,3386.722809 4084.424411,3405.189866 4094.435307,3433.747574 4079.006024,3467.252152 4070.893653,3471.159010 4025.162152,3493.182636 4018.346082,3496.461770 3958.791910,3626.674036 3953.013536,3638.904966 3933.263739,3679.123639 3909.890821,3708.889370 3841.741813,3756.912936 3780.040211,3802.164448 3756.773060,3770.099012 3746.920407,3753.717169 3734.444749,3759.079434 3730.368535,3782.149716 3699.597639,3848.027987 3684.181276,3846.203701 3620.533582,3824.028731 3563.161534,3817.244439 3492.405821,3815.656061 3450.499948,3821.658743 3387.293666,3828.652198 3237.882003,3861.075080 3185.885445,3876.998640 3141.375484,3883.536805 3124.163720,3871.174062 3111.047949,3877.452105 3091.499118,3878.088376 3066.978258,3876.859411 3032.909827,3872.716674 2997.464281,3866.310696 2956.592153,3851.963960 2924.098998,3839.882439 2886.038553,3824.438597 2875.989083,3820.829251 2870.150411,3818.430437 2866.553934,3817.794820 2850.206231,3812.981426 2809.716697,3801.053099 2796.886234,3797.274631 2765.787339,3786.657222 2725.760285,3765.230407 2698.035133,3747.808745 2680.764380,3735.324335"/>
    <poly id="103020154" type="historic" color="128,255,128" fill="0" layer="-1.00" shape="3525.347303,2520.070308 3548.073727,2523.667918 3560.369853,2526.029200 3566.483030,2527.898653"/>
    <poly id="103020178" type="building" color="255,230,230" fill="0" layer="-1.00" shape="3771.244359,2720.492696 3779.799960,2713.322768"/>
    <poly id="103020195" type="historic" color="128,255,128" fill="0" layer="-1.00" shape="3501.307887,2519.512891 3481.409640,2518.186782 3446.582605,2517.111301"/>
    <poly id="103042794" type="building" color="255,230,230" fill="1" layer="-1.00" shape="3024.111356,2291.772906 3033.164528,2285.030743 3022.720133,2271.099515 3013.666808,2277.852810 3024.111356,2291.772906"/>
    <poly id="103042799" type="building" color="255,230,230" fill="1" layer="-1.00" shape="3899.861348,1651.279633 3900.330140,1640.346597 3920.437419,1647.435465 3919.911927,1667.228041 3916.600718,1667.329246 3915.982567,1676.092505 3897.577473,1675.307039 3897.438201,1678.595861 3879.566012,1677.828539 3879.927451,1669.439900 3864.453059,1668.770680 3864.901309,1658.270939 3849.989255,1657.631344 3850.853469,1637.398513 3868.163417,1638.136158 3867.767580,1647.458178 3886.328238,1648.245580 3886.222084,1650.701058 3899.861348,1651.279633"/>
    <poly id="103042818" type="building" color="255,230,230" fill="1" layer="-1.00" shape="3685.143631,1537.472020 3690.818197,1527.629630 3688.054600,1526.048324 3690.153369,1522.395957 3685.339244,1519.631741 3684.611977,1520.889599 3681.738191,1519.240157 3680.018445,1522.219330 3672.742084,1518.044509 3667.408382,1527.302158 3685.143631,1537.472020"/>
    <poly id="103042820" type="building" color="255,230,230" fill="1" layer="-1.00" shape="2837.259868,1617.660554 2822.309008,1601.637250 2813.533266,1609.772960 2828.484129,1625.796241 2837.259868,1617.660554"/>
    <poly id="103042824" type="building" color="255,230,230" fill="1" layer="-1.00" shape="2852.715405,1638.181672 2841.652261,1626.166091 2834.031986,1633.127147 2845.102391,1645.153924 2852.715405,1638.181672"/>
    <poly id="103042832" type="amenity" color="237,199,199" fill="1" layer="-1.00" shape="3527.235879,1621.694307 3526.190989,1628.017414 3508.176824,1625.059365 3515.282560,1582.017766 3501.125211,1579.699125 3506.968955,1544.300730 3543.744094,1550.337754 3539.507545,1576.018522 3612.458754,1587.996502 3614.202877,1577.458049 3626.690186,1579.510638 3628.129396,1570.780291 3702.669076,1583.024707 3699.341192,1603.136476 3738.768396,1609.609581 3732.014873,1650.498833 3697.206099,1644.775258 3701.306593,1619.926592 3648.446440,1611.244231 3643.566473,1640.807507 3527.235879,1621.694307"/>
    <poly id="103042832#1" type="building" color="255,230,230" fill="1" layer="-1.00" shape="3527.235879,1621.694307 3526.190989,1628.017414 3508.176824,1625.059365 3515.282560,1582.017766 3501.125211,1579.699125 3506.968955,1544.300730 3543.744094,1550.337754 3539.507545,1576.018522 3612.458754,1587.996502 3614.202877,1577.458049 3626.690186,1579.510638 3628.129396,1570.780291 3702.669076,1583.024707 3699.341192,1603.136476 3738.768396,1609.609581 3732.014873,1650.498833 3697.206099,1644.775258 3701.306593,1619.926592 3648.446440,1611.244231 3643.566473,1640.807507 3527.235879,1621.694307"/>
    <poly id="103042835" type="building" color="255,230,230" fill="1" layer="-1.00" shape="2795.999595,1575.240009 2807.465447,1572.108228 2804.516247,1561.353450 2793.042971,1564.485142 2795.999595,1575.240009"/>
    <poly id="103042838" type="building" color="255,230,230" fill="1" layer="-1.00" shape="2873.421544,1660.360281 2862.918803,1649.107840 2854.817548,1656.618516 2865.320289,1667.870942 2873.421544,1660.360281"/>
    <poly id="103042847" type="building" color="255,230,230" fill="1" layer="-1.00" shape="3020.406725,2297.139003 3013.499064,2287.967122 2989.142077,2306.184424 2996.049610,2315.367391 3020.406725,2297.139003"/>
    <poly id="103042847#1" type="sport" color="79,230,125" fill="1" layer="-2.00" shape="3020.406725,2297.139003 3013.499064,2287.967122 2989.142077,2306.184424 2996.049610,2315.367391 3020.406725,2297.139003"/>
    <poly id="103042851" type="leisure" color="207,245,201" fill="1" layer="-2.00" shape="3690.258795,1861.789172 3691.300290,1868.795370 3715.225559,1865.260970 3714.183947,1858.265882 3690.258795,1861.789172"/>
    <poly id="103042851#1" type="sport" color="79,230,125" fill="1" layer="-2.00" shape="3690.258795,1861.789172 3691.300290,1868.795370 3715.225559,1865.260970 3714.183947,1858.265882 3690.258795,1861.789172"/>
    <poly id="103080158" type="residential" color="235,235,227" fill="1" layer="-3.00" shape="2173.719869,3029.316950 2183.337118,2836.938142 2098.061464,2836.349179 2100.079591,2748.428519 2083.685529,2702.873114 2094.829826,2702.681844 2098.138577,2645.882976 2104.897826,2638.921097 2148.239187,2641.053165 2150.442855,2636.034206 2187.711301,2635.443162 2189.754585,2586.788022 2146.872765,2585.161779 2077.133983,2654.697465 2062.808272,2640.218242 2114.890059,2579.950818 2243.301994,2459.538431 2253.959327,2456.939966 2260.552172,2461.282106 2274.482954,2474.222629 2316.030200,2509.606127 2348.330128,2538.623746 2325.766438,2987.094272 2213.879836,3010.231071 2173.719869,3029.316950"/>
    <poly id="103080160" type="commercial" color="209,209,204" fill="1" layer="-3.00" shape="2175.015927,3205.937992 2175.860266,3206.482399 2178.336127,3210.849669 2192.549057,3213.165807 2311.986698,3190.258760 2325.964855,2996.457321 2204.480173,3022.239523 2112.548017,3088.066980 2113.410657,3094.136752 2207.622307,3086.824933 2207.890269,3112.764295 2183.107271,3101.663996 2127.947003,3159.834791 2144.125198,3177.528465 2163.874292,3194.411810 2169.166771,3202.550377 2175.015927,3205.937992"/>
    <poly id="103080162" type="residential" color="235,235,227" fill="1" layer="-3.00" shape="1850.217546,2893.166796 1841.815888,2860.520547 1913.240889,2847.088658 1918.148584,2882.592058 1977.997066,2891.669980 2021.736455,2927.457290 2042.337591,3080.178312 1973.898185,3085.497824 1967.635525,3065.162878 1928.445715,3068.043162 1888.999101,3028.876049 1851.236856,3039.979370 1760.573049,3016.837234 1707.917400,2994.645953 1710.470079,2972.010873 1870.659128,3007.609309 1874.138355,2990.166589 1911.040782,2929.759804 1852.419607,2922.576963 1850.217546,2893.166796"/>
    <poly id="103084850" type="residential" color="235,235,227" fill="1" layer="-3.00" shape="2145.438866,2007.594518 2154.910139,2017.920855 2159.177423,2028.158502 2168.694566,2054.015855 2173.933867,2069.301920 2178.611116,2099.021753 2174.724799,2112.868313 2152.806743,2125.795288 2164.403371,2144.186363 2167.087211,2167.666340 2152.175135,2179.304314 2138.842910,2165.215600 2124.108625,2207.005138 2119.136847,2230.498522 2122.664611,2265.595369 2135.460181,2297.342068 2164.574443,2356.244796 2175.433645,2377.261215 2172.514875,2393.621460 2129.529859,2484.031493 2036.271029,2575.501338 1971.546818,2575.799058 1921.782273,2573.975654 1859.259811,2567.643629 1843.279536,2563.282601 1839.150635,2731.907796 1836.682222,2753.109806 1824.611150,2859.367896 1750.158874,2854.141516 1707.792550,2826.066727 1653.088790,2814.022020 1651.181233,2809.161942 1657.129410,2778.543482 1672.776407,2781.710254 1702.719177,2788.927246 1700.502814,2797.314649 1722.792822,2800.866056 1748.207313,2800.888699 1735.737892,2541.127035 1589.185452,2506.806152 1439.783974,2466.983524 1426.429291,2479.765869 1410.031120,2547.649807 1383.947922,2540.116318 1372.108984,2577.097293 1328.248067,2580.300742 1325.661903,2580.490422 1320.734126,2580.850638 1274.878115,2587.864650 1261.251184,2595.285572 1241.125298,2597.922084 1239.583415,2583.406149 1220.996307,2586.128843 1216.615723,2558.359085 1176.255958,2574.536852 1101.552952,2601.844065 1100.263925,2581.328216 1095.147300,2564.933036 1083.921749,2399.794290 1084.367062,2375.587227 1090.392235,2375.107210 1085.660466,2328.701192 1323.115834,2307.215038 1319.409477,2264.179051 1326.243408,2255.949872 1630.889582,2219.528146 1639.764362,2218.551230 1760.725661,2207.101975 1777.458644,2207.081111 1781.826196,2221.121738 1913.598134,2230.557369 1903.246419,2133.507943 1893.820441,2135.311208 1876.153472,2045.783881 1869.960090,2002.415661 1864.617398,1995.188376 1859.863002,1978.963846 1885.085678,1971.658505 2000.625234,1925.382520 2104.819410,1880.575997 2109.503802,1901.657963 2145.438866,2007.594518"/>
    <poly id="103084854" type="military" color="153,153,92" fill="1" layer="-3.00" shape="1640.525608,1446.155788 1746.814830,1626.920762 1834.394580,1584.566329 1913.787118,1527.001077 1836.064671,1447.382234 1728.320765,1354.899010 1640.525608,1446.155788"/>
    <poly id="103084856" type="residential" color="235,235,227" fill="0" layer="-3.00" shape="798.176232,844.397241 825.067051,857.307405 899.500908,887.378160 1114.021569,977.074562 1195.742780,1006.284938 1133.863125,1120.421097 1271.970482,1174.477557 1400.850585,1229.543646 1362.937280,1333.252462 1372.779284,1397.087850 1427.461166,1493.995835 1427.117181,1521.205722 1403.249125,1558.323605 1435.570051,1584.134345 1466.900952,1615.602388 1509.699898,1569.363881 1502.451255,1531.874788 1549.668749,1471.840789 1640.525608,1446.155788 1746.814830,1626.920762 1834.394580,1584.566329 1913.787118,1527.001077 1836.064671,1447.382234 1882.864991,1389.046509 1948.154309,1432.077411 1975.847114,1473.462764 2053.407774,1671.265872 2104.819410,1880.575997 2000.625234,1925.382520"/>
    <poly id="103084858" type="residential" color="235,235,227" fill="1" layer="-3.00" shape="2702.128755,1988.483835 2682.997999,1994.685537 2676.815049,1985.512297 2658.330741,2000.749393 2604.125206,2060.062022 2549.749554,2122.908166 2527.338145,2147.666968 2474.174837,2201.557964 2469.452057,2208.990224 2469.525929,2209.580372 2419.581157,2264.302456 2398.907628,2288.150198 2301.505339,2388.078330 2366.546187,2474.778787 2376.160596,2485.974487 2383.293960,2491.457630 2373.621066,2505.630130 2399.663486,2527.819863 2411.507983,2513.464022 2462.615240,2554.362926 2482.642408,2524.870812 2512.337456,2547.385872 2534.938963,2520.383840 2554.888473,2536.170494 2570.239287,2519.191935 2599.912983,2485.166141 2666.538194,2401.077852 2701.703222,2333.950089 2711.417705,2321.234989 2725.538544,2266.454324 2733.041537,2225.973880 2733.569856,2210.817098 2733.737749,2205.827727 2733.865604,2178.070233 2732.869936,2161.092877 2731.037965,2127.985112 2725.083693,2086.686641 2722.228046,2064.649350 2720.621227,2050.854711 2714.275696,2025.559694 2702.128755,1988.483835"/>
    <poly id="103084860" type="residential" color="235,235,227" fill="1" layer="-3.00" shape="2249.894639,2139.731737 2296.322431,2124.306151 2370.777073,2101.180102 2410.250380,2090.591170 2456.635230,2072.809527 2493.745693,2055.976469 2555.894735,1996.664771 2640.322483,1917.351630 2575.275181,1850.547481 2543.175639,1808.001872 2507.653066,1740.777304 2444.082137,1682.131332 2389.845438,1635.178458 2293.025747,1578.209470 2241.125336,1513.411893 2163.041446,1434.595390 2102.941902,1391.772720 2069.209762,1390.819884 2096.783668,1462.364621 2097.150532,1464.370354 2120.615422,1592.659340 2156.793465,1851.913018 2174.185398,1924.428804 2184.047486,1959.806707 2199.410975,2005.593719 2218.858982,2061.404919 2244.235525,2125.451871 2249.894639,2139.731737"/>
    <poly id="103190531" type="building" color="255,230,230" fill="1" layer="-1.00" shape="1816.438950,2054.573899 1814.516612,2024.655975 1821.282103,2024.219486 1820.187427,2007.241099 1833.140317,2006.416378 1834.364410,2025.441933 1853.060024,2024.256722 1854.852712,2052.127496 1816.438950,2054.573899"/>
    <poly id="103422058" type="building" color="255,230,230" fill="1" layer="-1.00" shape="2784.766407,4005.362592 2799.889720,4011.527419 2796.382192,4020.075660 2781.258898,4013.910843 2784.766407,4005.362592"/>
    <poly id="103422952" type="farm" color="242,242,204" fill="1" layer="-3.00" shape="2780.006372,3983.033817 2792.097162,3954.018595 2841.626843,3975.401753 2830.807746,4003.933014 2780.006372,3983.033817"/>
    <poly id="103667865" type="building" color="255,230,230" fill="1" layer="-1.00" shape="3668.002441,3339.387979 3667.010311,3345.078089 3664.679369,3356.931821 3667.384724,3357.233919 3669.480130,3357.194550 3671.964602,3356.837863 3673.880924,3356.340360 3676.226508,3355.281488 3678.032822,3354.137762 3679.534528,3353.078999 3680.741347,3351.927452 3681.771117,3350.729128 3682.531545,3349.749631 3683.824704,3347.654261 3684.579321,3345.985431 3685.187510,3344.192402 3685.871297,3341.144132 3674.315534,3340.048420 3668.002441,3339.387979"/>
    <poly id="103667868" type="building" color="255,230,230" fill="1" layer="-1.00" shape="3672.751231,3336.826300 3679.683564,3337.683815 3685.861985,3338.453682 3686.600289,3329.525199 3686.940310,3329.562986 3687.430343,3324.344362 3667.695744,3322.608335 3667.169482,3330.605753 3670.359850,3331.180989 3670.850763,3328.163552 3673.424069,3328.374994 3672.751231,3336.826300"/>