<routes>
<vType maxSpeed="45.00" probability="0.20" color="204,204,204" accel="2.6" decel="3.8" vClass="passenger" emergencyDecel="4.5" length="4.50" minGap="2.00" speedFactor="normc(1.00,0.10,0.20,2.00)" sigma="0.5" id="passenger2b"/>
    <vehicle type="passenger2b" depart="0.00" id="a2b0"><route edges="-4624426 -4624425#2 -4624425#0 -329163422#0 -103667851 -329163395 -136781633 -4427330#0 -136781632#0 -329163402#0 -82433536 -329163400#1 -329163400#0 -437045173#5 -437045173#3 -437045173#2 -437045173#1 -437045173#0 -727108696 -82433543#0 82433551#0 82433551#1 133039173#1 241955498#1 241955498#2 241955498#3 241955498#4 241955498#5 458123179#0 458123179#2 458123179#3 458123179#4 397626756#0 242930246#1 242930246#2 397626754#0 397626754#1 397626754#3 397626754#4 397626754#5 602257867#0 602257867#1 602257867#2 602257867#4 602257867#5 245503037#0 245503037#1 328962562#0 328962562#1 328962562#2 242047953 328962561#0 328962561#1 242045600#1 242045600#2 328962563#0 328962563#1 242949070#0 242949070#1 326814543 34074634#0 34074634#1 328972795#1 328972795#2 328972795#3 227562705#0 227562705#2 151003058 328972792 328972791 328972793#0 4387602#0 4591084 4591087#0 -4591087#0                        "></route></vehicle>
    <vehicle type="passenger2b" depart="80.00" id="a2b1"><route edges="-67652230#1 594086993#5 -25116776#8 -25116776#6 -25116776#4 -25116776#3 -25116776#2 -25116776#0 -431726762#1 -220173782#1 -317794132 -68034417 68034415#0 68034415#1 68034423 68034419 23723683 4453203#0 4453203#1 -248783828 -4453202 -329163401 -4453205 -110263759#1 119796455#1 727108696 329163399 437045173#1 437045173#2 437045173#3 437045173#4 437045173#6 329163400#1 82433536 329163402#0 329163402#2 248963104#1 119810553#1 119810553#2 119810553#3 -539782979 -557263984#1 -557263984#0 -119810554#4 -119810554#3 -119810554#1 -119810554#0 -557263987#1 -557263990#2 -557263990#1 -557263990#0 4611369#0 4611369#1 4611369#2 4611369#3 4611369#5 4611369#10 4611369#11 4620317 4620318#0 4611371#0 4611371#1 4611371#2 4611371#3 4611371#4 -531527811#13 -531527811#12 4609558#0 4609558#1 4609558#2 4609558#3 4609558#4 4609558#5 4609558#6 4609558#7 4609558#8 4609558#10 4609571#0 4609571#1 4609571#2 4609571#3 -4609572#0                        "></route></vehicle>
    <vehicle type="passenger2b" depart="160.00" id="a2b2"><route edges="328847934#0 328847934#3 328847928#1 328847922#2 328847905#0 328847870 328847871 156517059 62072522#1 463981123 179060432 179061345#1 4399101#0 4399101#1 329286271 53376240 463983939#0 89972201#1 329286297 329286300 4441825#0 4441825#1 4441825#2 -329286256#2 -329286256#0 -329286255 -329286257 4441817#0 4441817#1 4441817#2                        "></route></vehicle>
    <vehicle type="passenger2b" depart="240.00" id="a2b3"><route edges="4627939#0 4627939#1 4627939#2 4627939#3 4627939#4 4627939#5 4627939#6 4627941 4627942#7 4627943#0 241955504#1 241955504#2 328962564#0 328962564#1 242949070#0 242949070#1 326814543 104841469 256078750#0 256078750#2 442440282 256078751 115670818#0 4395415#0 4395415#1 4395415#2 328972784#0 328972784#1 325996410 328972785 53376236 326814541#1 326814541#2 326814540 53376237 328972780 62073306 156517063#1 4399070 32341044 32460642                        "></route></vehicle>
    <vehicle type="passenger2b" depart="320.00" id="a2b4"><route edges="317794125#0 317794125#1 37833219#1 62072527#0 62072527#1 4406216 59164973 79085682 32089657#0 32089657#1 -64052827#0 -64052828#1 -64052828#0 -66877092#5 -66877092#4 -66877092#3 -66877092#2 -66877092#1 -66877092#0 -419882031#1 -419882031#0 -24646002#11 -24646002#10 -24646002#9 -24646002#8 -24646002#7 -24646002#6 -24646002#5 -24646002#4 -24646002#3 -24646002#2 -24646002#1 -24646002#0 -60302077#2 -60302077#1 -60302077#0 -520786903 -419882020 419882018 -419882010#0                        "></route></vehicle>
    <vehicle type="passenger2b" depart="400.00" id="a2b5"><route edges="-4441817#2 -4441817#1 -4441817#0 329286257 329286255 329286256#0 329286256#1 385816798#0 385816798#2 328972801#0 328972801#2 328972799#3 156517089#0 328972784#0 328972784#1 153365261#0 387911767#0 387911767#1 387911767#2 4387602#0 4387602#1 4387602#2 4387602#3 4395414 439208434 328962569#0 328962569#1 328962569#2 34706874#0 34706874#1 34706874#2 241955504#0 241955504#1 241955504#2 328962564#0 328962564#1 241957560#1 241957815#0 241957815#1 241957815#2 -4627942#7 -4627941 -4627939#6 -4627939#5 -4627939#4 -4627939#3 -4627939#2 -4627939#1 -4627939#0                        "></route></vehicle>
    <vehicle type="passenger2b" depart="560.00" id="a2b7"><route edges="-463414886 219662942#1 116353640#0 116353640#1 116353640#2 116353640#3 38820340#1 38820340#3 38820340#5 -288248504 288248505#0 288248505#1 293803042#2 288671398#0 288671398#1 -262771814#2 -262771814#1 -293803044#1 -293803044#0 -304505287#0 -23076776#2 -23076776#1 -23076776#0 -118254791#2 -435017532#4 -435017532#3 -435017532#2 -435017532#1 -85076013#3 -85076013#2 -85076013#0 -66021171#4 -66021171#2 -66021171#1 -66021171#0 -613501578 -60302077#2 -60302077#1 -60302077#0 -520786903 -419882020 -87059422#0 62073787 87059432 64052774 32460618 4433351 62073307 4399103#1 326272762#1 256078749 32340289#0 32340289#1 385816799#0 4396711#0 91395028 328972796#0 328972796#1 328972796#2 329286304#0 329286304#1 -329286256#2 -329286256#0 -329286255 -329286257 4441817#0 4441817#1 4441817#2                        "></route></vehicle>
    <vehicle type="passenger2b" depart="720.00" id="a2b9"><route edges="24993817 -63108317#1 -63108317#0 24993799 62836477 62836479#1 62072523#0 62072523#1 32341117 4406208 87059432 64052774 32460618 4433351 62073307 4399103#1 387911767#0 387911767#1 387911767#2 4387602#0 4387602#1 4387602#2 4387602#3 4395414 439208434 328962569#0 328962569#1 328962569#2 34706874#0 34706874#1 34706874#2 241955504#0 241955504#1 241955504#2 328962564#0 328962564#1 -328962563#1 -328962563#0 -242045600#2 -242045600#1 -242045600#0 -328962561#0 -242047953 -519317749 -328962562#1 -328962562#0 -245503037#1 -245503037#0 -602257867#5 -241957550#2 -241957550#1 -241957550#0 -242047950#1 -242047950#0 396321000 242047945                        "></route></vehicle>
    <vehicle type="passenger2b" depart="880.00" id="a2b11"><route edges="-4441817#2 -4441817#1 -4441817#0 329286257 329286255 329286256#0 329286256#1 -4441825#3 -4441825#1 -4441825#0 -329286300 -329286297 -457627968 4442538#1 329286299 180166725 463981127 4442537 156724778 463982793#1 62115073#1 62114271 156517085 156725931 4399104#0 4399104#1 25634944 104043216 659223504 521057237#1 659226747 653971212 -653971214 -521057238#1 -521057238#0 -659226748 -328852473 -260136547#1 -260136547#0 -170598141#2 -170598141#1 -170598141#0 -4427335#6 -4427335#4 -4427335#3 -4427335#2 -4427335#1 -4427335#0 -597799270#1 -597799270#0 4611385#0 4611385#1 4611385#2 4611385#3 4611385#4 4611385#5 4611385#6 196478438#0 55913205#2 55913203#1                        "></route></vehicle>
    <vehicle type="passenger2b" depart="960.00" id="a2b12"><route edges="-329163391#3 -329163391#2 -329163391#0 -177172368 -252378478#1 -252378478#0 -329163413 -61319337#4 -61319337#3 -61319337#1 164209811#1 164209811#2 164209811#3 164209811#4 -32202364 -339934062 -4427342#2 -4427342#1 -4427342#0 -38820724#3 -38820724#1 -329163390 -329163386 -329163388#1 -329163388#0 -110263757#0 4427341#1 329163387#0 329163387#1 110263759#0 110263759#2 329163401 4453202 248783824 68034411#0 68034411#1 23723680 68034422 23723682 4453198#0 4453198#1 68034417 317794132 220173782#1 317794133#2 35156858#1 317794135#0 117813683 117813687#0 117813687#1 35156859#0 35156859#1 66310448 164600250 -320744211 -320744210#1 -320744210#0 -320744207#0 -4453190#2 -4453190#1 -4453190#0                        "></route></vehicle>
    <vehicle type="passenger2b" depart="1040.00" id="a2b13"><route edges="317794120 317794119 67354201 460792168 460792169 317794121#0 317794121#1 460792170 84033910#0 84033910#1 117813685 -66310433#0 -4453200 -35156860#1 -35156860#0 -613501570 -35135627 4406215#0 4406215#1 79085682 32089689 32089674 4406213#0 4406213#1 -79085677#2 -79085677#1 -79085677#0 -59475140#1 4406210 64052819#0 4406208 87059432 64052774 32460618 4433351 62073307 4399103#1 51732984#1 328972785 104728237#0 104728237#1 104728237#2 104728237#3 289112669#0 289112669#1 289112669#2 328972805#0 328972805#1 132314084#0 132314084#1 149149062 -453800738#1 -453800738#0 -454027479 -4432374#5 -4432374#4 -4432374#3 -4432374#2 -4432374#0 -4432390#4 4432392#0 4432392#1                        "></route></vehicle>
    <vehicle type="passenger2b" depart="1120.00" id="a2b14"><route edges="35135632#0 35135632#1 35135632#2 35135632#3 35135632#4 722166522 -35135631#6 -35135631#5 -35135631#4 -35135631#3 -35135631#2 -35135631#1 35135630#1 35135630#2 540578455#0 540578455#1 613501572 35156860#1 4453200 66310433#0 -117813685 117813678#0 117813678#1 117813684 -317794135#0 -35156858#1 -219662933#0 -536569901#4 -536569901#3 -536569901#2 -536569901#1 -536569901#0 -24907061#3 -288319660 -187913310                        "></route></vehicle>
    <vehicle type="passenger2b" depart="1200.00" id="a2b15"><route edges="60251895 32460618 4433351 62073307 4399103#1 51732984#1 328972785 104728237#0 104728237#1 104728237#2 104728237#3 289112669#0 289112669#1 289112669#2 328972805#0 328972805#1 132314084#0 132314084#1 149149062 386257052 328972789#0 328972789#2 328972789#4 328972789#5 454027476 4430756 686962510                        "></route></vehicle>
    <vehicle type="passenger2b" depart="1360.00" id="a2b17"><route edges="-4441817#2 4441817#2                        "></route></vehicle>
    <vehicle type="passenger2b" depart="1440.00" id="a2b18"><route edges="4627998 208142986#0 208142986#1 208142986#2 208142986#3 208142986#4 208142986#5 208142986#6 208142986#7 208142986#8 208142986#9 -561501782 -52503498#1 -52503498#0 -285590636#1 -285590636#0 -285590635#1 -285590635#0 -131752806#1 -131752806#0 -97166541#4 -97166541#3 -97166541#0 -241955501 242930246#1 242930246#2 397626754#0 397626754#1 397626754#3 397626754#4 397626754#5 602257867#0 602257867#1 602257867#2 602257867#4 602257867#5 245503037#0 245503037#1 328962562#0 328962562#1 328962562#2 242047953 328962561#0 328962561#1 242045600#1 242045600#2 328962563#0 328962563#1 242949070#0 242949070#1 326814543 104841469 256078750#0 256078750#2 442440282 256078751 115670818#0 4395415#0 4395415#1 4395415#2 328972784#0 328972784#1 325996410 328972785 53376236 326814541#1 326814541#2 326814540 53376237 328972780 62073306 156517063#1 4399070 32341044 32460642                        "></route></vehicle>
    <vehicle type="passenger2b" depart="1600.00" id="a2b20"><route edges="-4611394#10 4611390#0 4611390#1 4611389#0 4611389#1 4620318#0 4611371#0 4611371#1 4611371#2 4611371#3 4611371#4 -531527811#13 -531527811#12 4609558#0 4609558#1 4609558#2 4609558#3 4609558#4 4609558#5 4609558#6 4609558#7 4609558#8 4609558#10 4609571#0 4609571#1 4609571#2 -4609567#5 -4609567#4 -4609567#3 -4609567#2 -4609567#1 -4609567#0                        "></route></vehicle>
    <vehicle type="passenger2b" depart="1840.00" id="a2b23"><route edges="60418608#0 60418608#2 60418608#3 26763943#1 26763943#2 26763943#3 62836477 62836479#1 62072523#0 62072523#1 32341117 4406208 87059432 64052774 32460618 4433351 62073307 4399103#1 51732984#1 328972785 104728237#0 104728237#1 104728237#2 104728237#3 289112669#0 289112669#1 289112669#2 328972805#0 328972805#1 149149061 34074908#0 34074908#1 34074908#2 34074908#3 34074908#4                        "></route></vehicle>
    <vehicle type="passenger2b" depart="1920.00" id="a2b24"><route edges="47356744 178988631 156729446 156517058 179060432 179061345#1 156724777 666512604 32341044 32460642                        "></route></vehicle>
    <vehicle type="passenger2b" depart="2000.00" id="a2b25"><route edges="53856394#0 53856394#1 590035773 457679900#1 328847941#0 328847941#1 328847941#2 -4399112 156729452 288356688 156729446 156517058 179060432 179061345#1 156724777 666512604 32341044 4406207 64052771 87059428 177007417#0 177007417#1 59475140#0 23481356#1 23481356#2 23481356#3 23481356#4 23481356#5 79085676#1 79085676#2 79085676#3 -66990427                        "></route></vehicle>
    <vehicle type="passenger2b" depart="2080.00" id="a2b26"><route edges="-4441817#2 -4441817#1 -4441817#0 329286257 329286255 329286256#0 329286256#1 -4441825#3 -4441825#1 -4441825#0 -329286300 -329286297 -457627968 4442538#1 329286299 180166725 463981127 4442537 156724778 463982793#1 62115073#1 62114271 156517085 156725931 67486811 4399095 328847936 67486819 4399098 328847871 156517059 62072522#1 463981123 179060432 179061345#1 4399101#0 463982792                        "></route></vehicle>
    <vehicle type="passenger2b" depart="2160.00" id="a2b27"><route edges="-219716855 -219716856#0 -219716857#1 -219716857#0 -219716854 -152597287#6 -152597287#5 -152597287#3 -152597287#2 -152597287#1 -152597287#0 583097252#1 328847950 385836126#0 535301458 583922141 328847940 653805453 638446703 -4399112 156729452 288356688 156729446 156517058 179060432 179061345#1 156724777 666512604 32341044 4406207 64052771 62072524#0 62072524#1 -62836479#1 -62836477 -26763943#3 -26763943#2 -26763943#1 -26763943#0 -60418608#2 -60418608#1                        "></route></vehicle>
    <vehicle type="passenger2b" depart="2240.00" id="a2b28"><route edges="-4705777#4 -4705777#1 -4705777#0 -531527811#13 -531527811#12 -531527811#11 -531527811#10 -531527811#9 -531527811#8 -531527811#7 -531527811#6 -531527811#5 -531527811#4 -531527811#2 -531527811#1 222826764 641535063#1 328852474 659223380 4386508#0 4386508#1 641535062#0 641535062#1 -521057237#1 -521057237#0 -104043216 -111393025 4570090#1 4399095 328847936 67486819 4399098 328847871 156517059 62072522#1 463981123 179060432 179061345#1 4399101#0 4399101#1 329286271 53376240 463983939#0 89972201#1 329286297 329286300 4441825#0 4441825#1 4441825#2 -329286256#2 -329286256#0 -329286255 -329286257 4441817#0 4441817#1 4441817#2                        "></route></vehicle>
    <vehicle type="passenger2b" depart="2320.00" id="a2b29"><route edges="-596568012#1 -25116776#8 -25116776#6 -25116776#4 -25116776#3 -25116776#2 -25116776#0 -431726762#1 -220173782#1 -317794132 -68034417 68034415#0 68034415#1 68034423 68034419 23723683 4453203#0 4453203#1 -248783828 -4453202 -329163401 -4453205 -110263759#1 119796455#1 727108696 329163399 437045173#1 437045173#2 437045173#3 437045173#4 437045173#6 329163400#1 82433536 329163402#0 329163402#2 248963104#1 119810553#1 119810553#2 119810553#3 119810565#1 119810565#2 119810565#3 119810565#4 119810565#5 119810565#6 119810565#8 119810565#9 119810562#0 119810562#1 119810562#2 119810562#3 119810562#4 119810562#5 119810562#6 119810562#7 119810570#0 119810570#1 119810570#2 458648630#0 458648630#1 458648630#2 638458256 551284434#1 551284434#2 551284437#0 551284437#1 521057238#1 653971214 -653971212 -659226747 -521057237#1 -521057237#0 -104043216 -111393025 229943906#0 229943906#1 262649859 262649858 156517055 156729447 4396732                        "></route></vehicle>
    <vehicle type="passenger2b" depart="2480.00" id="a2b31"><route edges="329286293#0 329286293#1 329286293#2 650203661#1 454027469 4441823#1 681482465 329286258#1 329286258#3 329286258#4 329286258#5 329286254#0 329286257 329286255 329286256#0 329286256#1 -4441825#3 -4441825#1 -4441825#0 -329286300 -329286297 -457627968 4442538#1 329286299 180166725 463981127 4442537 156724778 463982793#1 62115073#1 444240350 156517055 156729447 4396732                        "></route></vehicle>
    <vehicle type="passenger2b" depart="2560.00" id="a2b32"><route edges="-4705777#4 -4705777#1 -4705777#0 -531527811#13 -531527811#12 -531527811#11 -531527811#10 -531527811#9 -531527811#8 -531527811#7 -531527811#6 -531527811#5 -531527811#4 -531527811#2 -531527811#1 222826764 641535063#1 328852474 659223380 4386508#0 4386508#1 641535062#0 641535062#1 -521057237#1 -521057237#0 -104043216 -111393025 4570090#1 4399095 328847936 67486819 4399098 328847871 156517059 62072522#1 463981123 179060432 179061345#1 4399101#0 4399101#1 329286271 53376240 482265404 4399100 329286233 329286232#0 4395415#0 4395415#1 4395415#2 328972784#0 328972784#1 325996410 328972785 104728237#0 104728237#1 104728237#2 104728237#3 289112669#0 289112669#1 289112669#2 328972805#0 328972805#1 132314084#0 132314084#1 149149062 -453800738#1 -453800738#0 -454027479 -4432374#5 -4432374#4 -4432374#3 -4432374#2 -4432374#0 -4432390#4 4432392#0 4432392#1                        "></route></vehicle>
    <vehicle type="passenger2b" depart="2640.00" id="a2b33"><route edges="-242047945 542288858 -241957549 -328962568#3 -328962568#2 -328962568#1 -241957560#1 242949070#0 242949070#1 326814543 104841469 256078750#0 256078750#2 442440282 256078751 115670818#0 4396711#0 91395028 328972796#0 328972796#1 328972796#2 329286304#0 329286304#1 -329286256#2 -329286256#0 -329286255 -329286257 4441817#0 4441817#1 4441817#2                        "></route></vehicle>
    <vehicle type="passenger2b" depart="2720.00" id="a2b34"><route edges="-219716855 -219716856#0 -219716857#1 -219716857#0 -219716854 -152597287#6 -152597287#5 -152597287#3 -152597287#2 -152597287#1 -152597287#0 583097252#1 328847950 4399110 653890304 653999909 531527809#0 531527809#1 222826764 641535063#1 328852474 659223380 4386508#0 4386508#1 641535062#0 641535062#1 659226747 653971212 -653971214 -521057238#1 -521057238#0 -659226748 -328852473 -260136547#1 -260136547#0 -170598141#2 -170598141#1 -170598141#0 -4611373#9 -4611373#8 55914803                        "></route></vehicle>
    <vehicle type="passenger2b" depart="2800.00" id="a2b35"><route edges="-4624446#3 -4624446#2 -4624446#0 -4624432#4 -4624432#3 -4624432#2 -4624432#1 -4624432#0 -329163407#1 -329163407#0 -4427331#2 34074419 -329163394#2 -329163394#1 -329163394#0 -4427332#2 -4427332#1 -4427332#0 4624406#0 4624406#1 329163392#0 329163392#1 329163393#0 329163393#1 4611385#0 4611385#1 4611385#2 4611385#3 4611385#4 4611385#5 4611385#6 196478438#0 55913205#2 55913203#1                        "></route></vehicle>
    <vehicle type="passenger2b" depart="2880.00" id="a2b36"><route edges="-24646323#1 -24646323#0 -24646002#8 -24646002#7 -24646002#6 -24646002#5 -24646002#4 -24646002#3 -24646002#2 -24646002#1 -24646002#0 540214008 66021171#0 66021171#1 66021171#2 66021171#4 85076013#0 85076013#2 85076013#3 435017532#1 435017532#2 435017532#3 435017532#4 118254791#1 118254791#4 23076776#1 23076776#2 304505287#0 -472350008#1 -472350008#0 -25745025#3 -25745025#2 -25745025#0 266925780#0 266925780#1 266925780#2 -419882007 -62073305#4 -62073305#3 -62073305#2 -62073305#1 -62073305#0 -68034420#1 -68034420#0 68034409 419882008 68034422 38820720 4453203#0 4453203#1 -248783828 -4453202 -329163401 -4453205 -110263759#1 119796455#1 727108696 329163399 437045173#1 437045173#2 437045173#3 437045173#4 437045173#6 329163400#1 82433536 329163402#0 329163402#2 4427330#0 4427330#1 329163395 67027737#0 131610063#0 131610063#2 131610063#3 329163396 131610062#2 329163398#0 34074419 -329163394#2 -329163394#1 -329163394#0 -4427332#2 -4427332#1 -4427332#0 -329163412 -329163409 -329163410#0 -329163411 4611394#1 4611394#2 4611394#3 4611394#4 4611394#5 4611394#7 4611394#8 4611394#10                        "></route></vehicle>
    <vehicle type="passenger2b" depart="2960.00" id="a2b37"><route edges="60418608#0 60418608#2 60418608#3 26763943#1 26763943#2 26763943#3 62836477 62836479#1 62072523#0 62072523#1 32341117 87059422#0 419882020 419882019 60302077#0 60302077#1 60302077#2 24646002#0 24646002#1 24646002#2 24646002#3 24646002#4 24646002#5 24646002#6 24646002#7 24646002#8 24646323#0 24646323#1                        "></route></vehicle>
    <vehicle type="passenger2b" depart="3040.00" id="a2b38"><route edges="328847934#0 328847934#3 328847928#1 328847922#2 328847905#0 328847935 67486821 4399104#0 4399104#1 25634944 104043216 659223504 521057237#1 659226747 653971212 -653971214 -521057238#1 653965403#0 653965403#1 641535064#0 641535064#1 657044730#0 -677322182 677322184#1 399370048 399370052                        "></route></vehicle>
    <vehicle type="passenger2b" depart="3120.00" id="a2b39"><route edges="4609567#0 4609567#1 4609567#2 4609567#3 4609567#4 4609567#5 -4609571#2 -4609571#1 -4609571#0 -4609558#10 -4609558#8 -4609558#7 -4609558#6 -4609558#5 -4609558#4 -4609558#3 -4609558#2 -4609558#1 -4609558#0 531527811#12 531527811#13 -4611371#4 -4611371#3 -4611371#2 -4611371#1 -4611371#0 -4620318#0 -131644781 -4611369#11 -4611369#10 -4611369#5 -4611369#3 -4611369#2 -4611369#1 -4611369#0 557263990#0 557263990#1 557263990#2 557263987#1 557263987#2 119810554#1 119810554#3 119810554#4 557263984#0 557263984#1 539782979 -460052912#1 -561501782 -52503498#1 -52503498#0 -285590636#1 -285590636#0 -285590635#1 -285590635#0 -131752806#1 -131752806#0 -97166541#4 -97166541#3 -97166541#0 -241955501 -397626756#0 4627984#4 4627984#6 4627984#7 4627984#8 4627984#9 -252716209                        "></route></vehicle>
    <vehicle type="passenger2b" depart="3280.00" id="a2b41"><route edges="200843267#0 200843267#1 200843267#2 200843267#3 200843267#4 4427348#0 4427348#1 4427348#2 4427345#6 4427345#7 4427345#8 4427359#1 4427359#2 4628035#0 4628035#1 4628031#0 4628031#1 4628031#2 4628031#3 -97166541#4 -97166541#3 -97166541#0 -241955501 242930246#1 242930246#2 397626754#0 397626754#1 397626754#3 397626754#4 397626754#5 602257867#0 602257867#1 602257867#2 602257867#4 -241957550#2 -241957550#1 -241957550#0 -242047950#1 -242047950#0 396321000 242047945                        "></route></vehicle>
    <vehicle type="passenger2b" depart="3360.00" id="a2b42"><route edges="-596568012#1 -25116776#8 -25116776#6 -25116776#4 -25116776#3 -25116776#2 -25116776#0 -431726762#1 -220173782#1 -317794132 -68034417 68034415#0 68034415#1 68034423 68034419 23723683 4453203#0 4453203#1 -248783828 -4453202 -329163401 -4453205 -110263759#1 119796455#1 727108696 329163399 437045173#1 437045173#2 437045173#3 437045173#4 437045173#6 329163400#1 82433536 329163402#0 329163402#2 248963104#1 119810553#1 119810553#2 119810553#3 119810565#1 119810565#2 119810565#3 119810565#4 119810565#5 119810565#6 119810565#8 119810565#9 119810562#0 119810562#1 119810562#2 119810562#3 119810562#4 119810562#5 119810562#6 119810562#7 119810570#0 119810570#1 119810570#2 458648630#0 458648630#1 458648630#2 638458256 551284434#1 551284434#2 551284437#0 551284437#1 521057238#1 653971214 -653971212 -659226747 -521057237#1 -521057237#0 -104043216 -111393025 4570090#1 4399095 328847936 67486819 4399098 328847871 156517059 62072522#1 463981123 179060432 179061345#1 4399101#0 463982792                        "></route></vehicle>
    <vehicle type="passenger2b" depart="3440.00" id="a2b43"><route edges="-177172372#4 -177172372#3 -177172372#2 -177172372#1 -177172372#0 -329163391#0 -177172368 -252378479#1 -252378479#0 -329163419#0 -329163415 -329163417 -329163423#5 -329163423#3 -329163423#2 -329163423#1 -329163423#0 -329163421#2 -329163421#1 -329163421#0 -329163414 -329163422#4 -329163422#3 -329163422#2 -329163422#1 -329163422#0 -103667851 -329163395 -136781633 -4427330#0 248963104#1 119810553#1 119810553#2 119810553#3 119810565#1 119810565#2 119810565#3 119810565#4 462397653#4 4427345#2 4427345#3 4427345#4 4427345#5 4427345#6 4427346#0 15070830 -200843277#4 -200843277#3 -200843277#2 -200843277#1 -200843277#0                        "></route></vehicle>
    <vehicle type="passenger2b" depart="3520.00" id="a2b44"><route edges="55818187#0 55818187#1 55818187#2 458123179#2 458123179#3 458123179#4 4628012#0 4628012#1 4628010#2 97166541#2 97166541#4 131752806#0 131752806#1 285590635#0 285590635#1 285590636#0 285590636#1 52503498#0 52503498#1 561501782 460052912#1 119810565#1 119810565#2 119810565#3 119810565#4 119810565#5 119810565#6 119810565#8 119810565#9 119810562#0 119810562#1 119810562#2 119810562#3 119810562#4 119810562#5 119810562#6 119810562#7 119810570#0 119810570#1 119810570#2 458648630#0 458648630#1 458648630#2 638458256 551284434#1 551284434#2 551284437#0 551284437#1 521057238#1 653971214 -653971212 -659226747 -521057237#1 -521057237#0 -104043216 -111393025 229943906#0 229943906#1 262649859 262649858 156517055 156729447 4396732                        "></route></vehicle>
    <vehicle type="passenger2b" depart="3600.00" id="b2b0"><route edges="-399370052 -399370048 -677322184#1 677322182 657044730#1 657044730#2 677745868#0 677745868#1 4386508#1 641535062#0 641535062#1 653817485#0 653817485#1 531527813 138011859#0 458648634#1 458651454#0 458651454#1 639360272#1 639360276#0 639360276#1 639360276#2 639360276#3 639360269#0 639360269#1 -639360264 -241953970#6 -241953970#5 241953974#0 241953974#1 241953974#2 458896308 245522977#0 245522977#1 245522977#2 245522976#0 -241953997#2 -241953997#1 -241953997#0                       "></route></vehicle>
    <vehicle type="passenger2b" depart="3690.00" id="b2b1"><route edges="-66273556 117813695#0 117813695#1 460792171 475533462#0 475533462#1 117813678#0 117813678#1 117813684 -317794135#0 -35156858#1 -444098637 -220173782#1 -317794132 -68034417 68034415#0 68034415#1 68034423 68034419 23723683 4453203#0 4453203#1 -248783828 -4453202 -329163401 -4453205 -110263759#1 119796455#1 727108696 329163399 437045173#1 437045173#2 437045173#3 437045173#4 437045173#6 329163400#1 82433536 329163402#0 329163402#2 248963104#1 119810553#1 119810553#2 119810553#3 119810565#1 119810565#2 119810565#3 119810565#4 119810565#5 119810565#6 119810565#8 119810565#9 119810562#0 119810562#1 119810562#2 119810562#3 119810562#4 119810562#5 119810562#6 119810562#7 119810570#0 119810570#1 119810570#2 458648630#0 458648630#1 458648630#2 638458256 551284434#1 551284434#2 551284437#0 551284437#1 521057238#1 653971214 -653971212 -659226747 -521057237#1 -521057237#0 -104043216 -111393025 229943906#0 229943906#1 262649859 262649858 156517055 156729447 4396732                       "></route></vehicle>
    <vehicle type="passenger2b" depart="3780.00" id="b2b2"><route edges="-399370052 -399370048 -677322184#1 677322182 657044730#1 657044730#2 677745868#0 677745868#1 4386508#1 641535062#0 641535062#1 -521057237#1 -521057237#0 -104043216 -111393025 4570090#1 4399095 328847936 67486819 4399098 328847871 156517059 62072522#1 463981123 179060432 179061345#1 4399101#0 4399101#1 329286271 53376240 463983939#0 89972201#1 329286297 329286300 4441825#0 4441825#1 4441829                       "></route></vehicle>
    <vehicle type="passenger2b" depart="3960.00" id="b2b4"><route edges="-60180154#1 118254791#1 118254791#4 23076776#1 23076776#2 304505287#0 265319796#1 293803044#1 262771814#1 262771814#2 288671397#0 288671397#1 293803041#0 293803041#1 293803041#2 238008364 293803042#0 288248506#0 288248506#1 288248504 243480577 -38820340#3 -38820340#1 -116353640#3 -116353640#2 -116353640#1 -116353640#0 -265319793 -431726761 -220173775#1 431726762#1 25116776#0 25116776#2 25116776#3 25116776#4 25116776#5 25116776#8 596568012#1                       "></route></vehicle>
    <vehicle type="passenger2b" depart="4050.00" id="b2b5"><route edges="-4441817#2 -4441817#1 -4441817#0 329286257 329286255 329286256#0 329286256#1 -4441825#3 -4441825#1 -4441825#0 -329286300 -329286297 -457627968 4442538#1 329286299 180166725 463981127 4442537 156724778 463982793#1 62115073#1 62114271 156517085 156725931 4399104#0 4399104#1 25634944 104043216 659223504 521057237#1 659226747 653971212 -653971214 -521057238#1 653965403#0 653965403#1 641535065 -641535063#1 -641535063#0 531527811#1 531527811#2 531527811#3 531527811#5 531527811#6 531527811#7 531527811#8 531527811#9 531527811#10 531527811#11 531527811#12 531527811#13 38820355 4705777#1 4705777#3                       "></route></vehicle>
    <vehicle type="passenger2b" depart="4140.00" id="b2b6"><route edges="4609572#0 4609572#1 4609572#2 -219716856#0 -219716857#1 -219716857#0 -219716854 -152597287#6 -152597287#5 -152597287#3 -152597287#2 -152597287#1 -152597287#0 583097252#1 328847950 4399110 653890304 653999909 531527809#0 531527809#1 222826764 641535063#1 328852474 659223380 4386508#0 4386508#1 641535062#0 641535062#1 653817485#0 653817485#1 531527813 138011859#0 521057229#1 521057229#3 110584200#0 -110584200#0                       "></route></vehicle>
    <vehicle type="passenger2b" depart="4230.00" id="b2b7"><route edges="-584518943#2 23481363#0 23481363#1 23481363#2 23481363#3 23481363#4 23481363#5 23481363#7 23481363#8 -23481356#3 -23481356#2 -23481356#1 79085677#0 79085677#1 79085677#2 4406212#0 4406212#1 318728069 23047005#0 23047005#1 64052824#0 64052824#1 64052824#2 64052824#3 -317794125#1 -317794125#0                       "></route></vehicle>
    <vehicle type="passenger2b" depart="4320.00" id="b2b8"><route edges="-4705777#4 -4705777#1 -4705777#0 -531527811#13 -531527811#12 -531527811#11 -531527811#10 -531527811#9 -531527811#8 -531527811#7 -531527811#6 -531527811#5 -531527811#4 -531527811#2 -531527811#1 222826764 641535063#1 328852474 659223380 4386508#0 4386508#1 641535062#0 641535062#1 -521057237#1 -521057237#0 -104043216 -111393025 4570090#1 4399095 328847936 67486819 4399098 328847871 156517059 62072522#1 463981123 179060432 179061345#1 4399101#0 4399101#1 329286271 53376240 463983939#0 89972201#1 329286297 329286300 4441825#0 4441825#1 4441825#2 -329286256#2 -329286256#0 -329286255 -329286257 -329286254#0 -329286258#5 -329286258#4 -329286258#3 -329286258#1 -329286258#0 -4441823#1 -4441823#0 4430756 686962510                       "></route></vehicle>