<routes>
<vType maxSpeed="70.00" probability="0.40" color="204,51,51" accel="2.6" decel="4.1" vClass="passenger" emergencyDecel="4.5" length="5.00" minGap="1.50" speedFactor="normc(1.00,0.10,0.20,2.00)" sigma="0.5" id="passenger1a"/>
    <vehicle type="passenger1a" depart="0.00" id="a1a0"><route edges="47356744 178988631 156729446 136776464 156725930 328847936 67486819 67486821 67486811 4399096 262649859 262649858 156517055 156729447 4396732                        "></route></vehicle>
    <vehicle type="passenger1a" depart="80.00" id="a1a1"><route edges="-67652230#1 594086993#5 596568012#1                        "></route></vehicle>
    <vehicle type="passenger1a" depart="160.00" id="a1a2"><route edges="-4611402#1 -4611402#0 -4620318#0 -131644781 -4611369#11 -4611369#10 -4611369#5 -4611369#3 -4611369#2 -4611369#1 -4611369#0 557263990#0 557263990#1 557263990#2 557263987#1 557263987#2 119810554#1 119810554#3 119810554#4 557263984#0 557263984#1 539782979 248963106#0 248963106#1 248963106#2 248963106#3 248963106#4 329163403#1 329163403#2 329163403#3 329163403#4 329163403#5 329163403#6 329163403#7 -136781632#0 -329163402#0 -82433536 -329163400#1 -329163400#0 -437045173#5 -437045173#3 -437045173#2 -437045173#1 -437045173#0 -727108696 -82433543#0 110263759#0 110263759#2 329163401 4453202 248783824 68034411#0 68034411#1 23723680 68034422 23723682 4453198#0 4453198#1 68034417 317794132 220173782#1 431726762#1 25116776#0 25116776#2 25116776#3 25116776#4 25116776#5 25116776#8 596568012#1                        "></route></vehicle>
    <vehicle type="passenger1a" depart="240.00" id="a1a3"><route edges="-4441817#2 -4441817#1 -4441817#0 329286257 329286255 329286256#0 329286256#1 385816798#0 385816798#2 328972801#0 328972801#2 328972799#3 156517089#0 328972784#0 328972784#1 325996410 328972785 53376236 326814541#1 326814541#2 326814540 53376237 328972780 62073306 156517063#1 4399070 32341044 4406207 64052771 87059428 32341117 87059422#0 419882020 419882019 60302077#0 60302077#1 60302077#2 540214008 66021171#0 66021171#1 66021171#2 66021171#4 85076013#0 85076013#2 85076013#3 435017532#1 435017532#2 435017532#3 435017532#4 118254791#1 118254791#4 23076776#1 23076776#2 304505287#0 265319796#1 293803044#1 262771814#1 262771814#2 288671397#0 288671397#1 293803041#0 293803041#1 293803041#2 238008364 293803042#0 288248506#0 288248506#1 288248504 243480577 -38820340#3 -38820340#1 -116353640#3 -116353640#2 -116353640#1 -116353640#0 -265319793 -431726761 -220173775#1 431726762#1 25116776#0 25116776#2 25116776#3 25116776#4 25116776#5 25116776#8 -594086993#5 67652230#1                        "></route></vehicle>
    <vehicle type="passenger1a" depart="320.00" id="a1a4"><route edges="-596568012#1 -25116776#8 -25116776#6 -25116776#4 -25116776#3 -25116776#2 -25116776#0 -431726762#1 -220173782#1 -317794132 -68034417 68034415#0 68034415#1 68034423 68034419 23723683 4453203#0 4453203#1 -248783828 -4453202 -329163401 -4453205 -110263759#1 119796455#1 727108696 329163399 437045173#1 437045173#2 437045173#3 437045173#4 437045173#6 329163400#1 82433536 329163402#0 329163402#2 248963104#1 119810553#1 119810553#2 119810553#3 119810565#1 119810565#2 119810565#3 119810565#4 119810565#5 119810565#6 119810565#8 119810565#9 119810562#0 119810562#1 119810562#2 119810562#3 119810562#4 119810562#5 119810562#6 119810562#7 119810570#0 119810570#1 119810570#2 458648630#0 458648630#1 458648630#2 638458256 551284434#1 551284434#2 551284437#0 551284437#1 521057238#1 653971214 -653971212 -659226747 -521057237#1 -521057237#0 -104043216 -111393025 4570090#1 4399095 328847936 156725924 156517067 328847919 -4705775#0 -227562699#4 -227562699#3 -227562699#2 -227562699#1 -227562699#0                        "></route></vehicle>
    <vehicle type="passenger1a" depart="400.00" id="a1a5"><route edges="24646318#2 -24646318#2 -24646318#1 -24646318#0 70260390#1 85076013#0 85076013#2 85076013#3 435017532#1 435017532#2 435017532#3 435017532#4 118254791#1 118254791#4 23076776#1 23076776#2 304505287#0 265319796#1 293803044#1 262771814#1 262771814#2 288671397#0 288671397#1 293803041#0 293803041#1 293803041#2 238008364 293803042#0 288248506#0 288248506#1 288248504 243480577 -38820340#3 -38820340#1 -116353640#3 -116353640#2 -116353640#1 -116353640#0 -265319793 -431726761 -220173775#1 431726762#1 25116776#0 25116776#2 25116776#3 25116776#4 25116776#5 25116776#8 596568012#1                        "></route></vehicle>
    <vehicle type="passenger1a" depart="480.00" id="a1a6"><route edges="4609572#0 -4609571#3 -4609571#2 -4609571#1 -4609571#0 -4609558#10 -4609558#8 -4609558#7 -4609558#6 -4609558#5 -4609558#4 -4609558#3 -4609558#2 -4609558#1 -4609558#0 531527811#12 531527811#13 -4611371#4 -4611371#3 -4611371#2 -4611371#1 -4611371#0 -4620318#0 -131644781 -4611369#11 -4611369#10 -4611369#5 -4611369#3 -4611369#2 -4611369#1 -4611369#0 557263990#0 557263990#1 557263990#2 557263987#1 557263987#2 119810554#1 119810554#3 119810554#4 557263984#0 557263984#1 539782979 -460052912#1 -561501782 -52503498#1 -52503498#0 -285590636#1 -285590636#0 -285590635#1 -285590635#0 -131752806#1 -131752806#0 -97166541#4 -97166541#3 -97166541#0 -241955501 241955496#1 241955496#2 241955496#3 397626745#0 397626745#1 171575216 22819689#0 22819689#1 22819692 22819691#0 18921550#1 425873849#1 425873848#1 425873848#2 425873848#3 67022241#0 24646013#1 24646013#2 -243480578#3 -243480578#2 -243480578#0 -85076013#3 -85076013#2 -85076013#0 -66021171#4 -66021171#2 -66021171#1 -66021171#0 -613501578 24646002#0 24646002#1 24646002#2 24646002#3 24646002#4 24646002#5 24646002#6 24646002#7 24646002#8 24646323#0 24646323#1                        "></route></vehicle>
    <vehicle type="passenger1a" depart="560.00" id="a1a7"><route edges="-28216748 62756053#4 62836481 68034410#0 68034410#1 317794101#1 68034419 23723683 4453203#0 4453203#1 -248783828 -4453202 -329163401 -4453205 -110263759#1 82433551#0 82433551#1 133039173#1 241955498#1 241955498#2 241955498#3 241955498#4 241955498#5 458123179#0 458123179#2 458123179#3 458123179#4 397626756#0 242930246#1 242930246#2 397626754#0 397626754#1 397626754#3 397626754#4 397626754#5 602257867#0 602257867#1 602257867#2 602257867#4 602257867#5 245503037#0 245503037#1 328962562#0 328962562#1 328962562#2 242047953 328962561#0 328962561#1 242045600#1 242045600#2 328962563#0 328962563#1 242949070#0 242949070#1 326814543 104841469 256078750#0 256078750#2 442440282 256078751 115670818#0 4396711#0 91395028 328972796#0 328972796#1 328972796#2 329286304#0 329286304#1 -4441825#3 4441829                        "></route></vehicle>
    <vehicle type="passenger1a" depart="640.00" id="a1a8"><route edges="60251895 32460618 151288342 156724778 463982793#1 62115073#1 62114271 156517085 156725931 4399104#0 4399104#1 25634944 104043216 659223504 521057237#1 659226747 653971212 -653971214 -521057238#1 -521057238#0 -659226748 -328852473 -260136547#1 -260136547#0 -170598141#2 -170598141#1 -170598141#0 -4427335#6 -4427335#4 -4427335#3 -4427335#2 -4427335#1 -4427335#0 4611369#0 4611369#1 4611369#2 4611369#3 4611369#5 4611369#10 4611369#11 4620317 542302894 4611392#1 4611392#2 4611392#3 4611389#0 4611389#1                        "></route></vehicle>
    <vehicle type="passenger1a" depart="720.00" id="a1a9"><route edges="-399370052 -399370048 -677322184#1 677322182 657044730#1 657044730#2 677745868#0 677745868#1 4386508#1 641535062#0 641535062#1 -521057237#1 -521057237#0 -104043216 -111393025 4570090#1 4399095 328847936 67486819 4399098 328847871 156517059 62072522#1 463981123 179060432 179061345#1 156724777 666512604 32341044 4406207 64052771 87059428 32341117 87059422#0 419882018 -419882010#0                        "></route></vehicle>
    <vehicle type="passenger1a" depart="800.00" id="a1a10"><route edges="4609567#0 4609567#1 4609567#2 4609567#3 4609567#4 4609567#5 4609571#3 4609572#1 4609572#2 -219716856#0 -219716857#1 -219716857#0 -219716854 -152597287#6 -152597287#5 -152597287#3 -152597287#2 -152597287#1 -152597287#0 583097252#1 328847950 385836126#0 535301458 583922141 328847940 653805453 638446703 -4399112 156729452 288356688 156729446 156517058 179060432 179061345#1 156724777 666512604 32341044 32460642                        "></route></vehicle>
    <vehicle type="passenger1a" depart="880.00" id="a1a11"><route edges="4609572#0 4609572#1 4609572#2 -219716856#0 -219716857#1 -219716857#0 -219716854 -152597287#6 -152597287#5 -152597287#3 -152597287#2 -152597287#1 -152597287#0 583097252#1 328847950 385836126#0 535301458 583922141 328847940 653805453 638446703 -4399112 156729452 288356688 156729446 156517058 179060432 179061345#1 4399101#0 4399101#1 329286271 53376240 463983939#0 89972201#1 329286297 329286300 4441825#0 4441825#1 4441825#2 -329286256#2 -329286256#0 -329286255 -329286257 -329286254#0 -329286258#5 -329286258#4 -329286258#3 -329286258#1 -329286258#0 -4441823#1 -4441823#0 -454027476 -329286268#0 -328972789#4 4432379#0 -4432376#1 380773482                        "></route></vehicle>
    <vehicle type="passenger1a" depart="960.00" id="a1a12"><route edges="4432390#0 -4432383#2 -4432383#1 -4432383#0 -4432378#0 329286293#1 329286293#2 650203661#1 454027469 4441823#1 681482465 329286258#1 329286258#3 329286258#4 329286258#5 329286254#0 329286257 329286255 329286256#0 329286256#1 -4441825#3 -4441825#1 -4441825#0 -329286300 -329286297 -457627968 4442538#1 329286299 180166725 463981127 4442537 156724778 463982793#1 62115073#1 444240350 156517055 156729447 4396732                        "></route></vehicle>
    <vehicle type="passenger1a" depart="1040.00" id="a1a13"><route edges="84018136#0 84018136#1 84018136#2 28432039#1 28432039#2 28432039#3 62836481 68034410#0 68034410#1 317794101#1 68034419 38820719 4453198#0 4453198#1 68034417 317794132 220173782#1 317794133#2 -219662933#0 -536569901#4 -536569901#3 -536569901#2 -536569901#1 -536569901#0 -24907061#3 -24907061#2 -24907061#1 -35135625#1 -58696106#1 -58696106#0 -25349279#8 -25349279#7 -25349279#6 -25349279#5 -25349279#4 -25349279#3 -25349279#2 -25349279#1 32040298#3 64052828#0 64052828#1 64052827#0 24670995#0 24670995#1 32089674 4406213#0 4406213#1 -79085677#2 -79085677#1 -79085677#0 23481356#1 23481356#2 23481356#3 -23481363#8 -23481363#7 -23481363#5 -23481363#4 -23481363#3 -23481363#2 -23481363#1 -23481363#0 584518943#2                        "></route></vehicle>
    <vehicle type="passenger1a" depart="1200.00" id="a1a15"><route edges="60418608#0 60418608#2 60418608#3 26763943#1 26763943#2 26763943#3 62836477 62836479#1 62072523#0 62072523#1 32341117 4406208 87059432 64052774 32460618 4433351 62073307 4399103#1 387911767#0 387911767#1 387911767#2 4387602#0 4387602#1 4387602#2 4387602#3 4395414 439208434 328962569#0 328962569#1 328962569#2 4427352#0 4427352#1 243122790 58950779 84033917 480884810 79085675#2 452730845 484029325 328962566#1 328962566#2 328852476#0 328852476#1 639360257 4427354#0 4427354#1 385545839#0 385545839#1 385545839#3 385545839#4 462397653#4 4427345#2 4427345#3 4427345#4 4427345#5 4427345#6 4427345#7 4427345#8 -172205449#1 241953984#0 241953984#1 241953984#2 245520879                        "></route></vehicle>
    <vehicle type="passenger1a" depart="1280.00" id="a1a16"><route edges="47356744 178988631 156729446 136776464 156725930 328847936 67486819 67486821 67486811 4399096 262649859 262649858 156517055 156729450 178988487#1 639759316 152597286 178988486#2 152597287#0 152597287#1 152597287#2 152597287#3 152597287#5 152597287#6 219716854 219716857#0 219716857#1 219716856#0 -4609572#2 -4609572#1 -4609572#0                        "></route></vehicle>
    <vehicle type="passenger1a" depart="1360.00" id="a1a17"><route edges="60251895 32460618 151288342 156724778 463982793#1 62115073#1 444240350 156517055 156729447 4396732                        "></route></vehicle>
    <vehicle type="passenger1a" depart="1440.00" id="a1a18"><route edges="419882010#0 -419882018 -87059422#0 62073787 87059432 64052774 32460618 151288342 156724778 463982793#1 62115073#1 444240350 156517055 156729450 178988487#1 639759316 152597286 178988486#2 152597287#0 152597287#1 152597287#2 152597287#3 152597287#5 152597287#6 219716854 219716857#0 219716857#1 219716856#0 -4609572#2 -4609572#1 -4609572#0                        "></route></vehicle>
    <vehicle type="passenger1a" depart="1520.00" id="a1a19"><route edges="-399370052 -399370048 -677322184#1 677322182 657044730#1 657044730#2 677745868#0 677745868#1 4386508#1 641535062#0 641535062#1 -521057237#1 -521057237#0 -104043216 -111393025 229943906#0 229943906#1 262649859 262649858 156517055 156729447 4396732                        "></route></vehicle>
    <vehicle type="passenger1a" depart="1600.00" id="a1a20"><route edges="-329163391#3 -329163391#2 -329163391#0 -177172368 -252378478#1 -252378478#0 -329163413 -61319337#4 -61319337#3 -61319337#1 164209811#1 164209811#2 164209811#3 164209811#4 -32202364 -339934062 -4427342#2 -4427342#1 -4427342#0 -38820724#3 -38820724#1 -329163390 -329163386 -329163388#1 -329163388#0 -110263757#0 4427341#1 329163387#0 329163387#1 110263759#0 110263759#2 329163401 4453202 248783824 68034411#0 68034411#1 23723680 68034422 23723682 4453198#0 4453198#1 68034417 317794132 220173782#1 317794133#2 35156858#1 317794135#0 117813683 66310439#0 66310439#1 -4453200 -35156860#1 -35156860#0 -540578455#1 -540578455#0 -35135630#2 -35135630#1 34932487#1 34932487#6 34932487#7 34932487#8 34932487#9 34932487#11 34932488#1 34932488#2 34932488#3 34932488#4 -46696031#5 -46696031#4 -46696031#3 -46696031#2 -46696031#0                        "></route></vehicle>
    <vehicle type="passenger1a" depart="1680.00" id="a1a21"><route edges="-4624431 -4624430#2 -329163422#3 -329163422#2 -329163422#1 -329163422#0 -103667851 -329163395 -136781633 -4427330#0 -136781632#0 -329163402#0 -82433536 -329163400#1 -329163400#0 -437045173#5 -437045173#3 -437045173#2 -437045173#1 -437045173#0 -727108696 -82433543#0 110263759#0 110263759#2 329163401 4453202 248783824 68034411#0 68034411#1 23723680 68034422 23723682 38820717 68034416#0 68034416#1 68034416#3 -62836481 -28432039#3 -28432039#2 -28432039#1 -84018136#2 -84018136#1 -84018136#0                        "></route></vehicle>
    <vehicle type="passenger1a" depart="1840.00" id="a1a23"><route edges="4609572#0 -4609571#3 -4609571#2 -4609571#1 -4609571#0 -4609558#10 -4609558#8 -4609558#7 -4609558#6 -4609558#5 -4609558#4 -4609558#3 -4609558#2 -4609558#1 -4609558#0 531527811#12 531527811#13 -4611371#4 -4611371#3 -4611371#2 -4611371#1 -4611371#0 -4620318#0 -131644781 -4611369#11 -4611369#10 -4611369#5 -4611369#3 -4611369#2 -4611369#1 -4611369#0 557263990#0 557263990#1 557263990#2 557263987#1 557263987#2 119810554#1 119810554#3 119810554#4 557263984#0 557263984#1 539782979 -460052912#1 -561501782 -52503498#1 -52503498#0 -285590636#1 -285590636#0 -285590635#1 -285590635#0 -131752806#1 -131752806#0 -97166541#4 -97166541#3 -97166541#0 -241955501 242930246#1 242930246#2 397626754#0 397626754#1 397626754#3 397626754#4 397626754#5 602257867#0 602257867#1 602257867#2 602257867#4 -241957550#2 -241957550#1 -241957550#0 -241957566#3 -241957566#2 -241957566#0 200513417 -28431504 -134686148                        "></route></vehicle>
    <vehicle type="passenger1a" depart="1920.00" id="a1a24"><route edges="47356744 178988631 156729446 136776464 156725930 328847936 67486819 67486821 4399104#0 4399104#1 25634944 104043216 458657025#0 458657025#1 531527813 138011859#0 458648634#1 458651454#0 458651454#1 639360272#1 639360276#0 639360276#1 639360276#2 639360276#3 639360257 4427354#0 4427354#1 385545839#0 385545839#1 385545839#3 385545839#4 385545839#5 385545839#6 385545839#7 385545839#9 385545839#10 385545839#11 248963106#0 248963106#1 248963106#2 248963106#3 248963106#4 329163403#1 329163403#2 329163403#3 329163403#4 329163403#5 329163403#6 329163403#7 -136781632#0 -329163402#0 -82433536 -329163400#1 -329163400#0 -437045173#5 -437045173#3 -437045173#2 -437045173#1 -437045173#0 -727108696 -82433543#0 110263759#0 110263759#2 329163401 4453202 248783824 68034411#0 68034411#1 23723680 68034422 23723682 4453198#0 4453198#1 68034417 317794132 220173782#1 317794133#2 35156858#1 317794135#0 117813683 117813687#0 117813687#1 35156859#0 35156859#1 66310448 164600250 -320744211 -320744210#1 -320744210#0 -320744207#0 -4453190#2 -4453190#1 -4453190#0                        "></route></vehicle>
    <vehicle type="passenger1a" depart="2080.00" id="a1a26"><route edges="60251895 32460618 4433351 62073307 4399103#1 387911767#0 387911767#1 387911767#2 4387602#0 4591084 4591087#0 -4591087#0                        "></route></vehicle>
    <vehicle type="passenger1a" depart="2160.00" id="a1a27"><route edges="317794120 317794119 67354201 460792168 460792169 317794121#0 317794121#1 460792170 66310445#0 66310445#1 117813684 -317794135#0 -35156858#1 -444098637 -220173782#1 -317794132 -68034417 68034415#0 68034415#1 68034423 68034419 23723683 4453203#0 4453203#1 -248783828 -4453202 -329163401 -4453205 -110263759#1 119796455#1 727108696 329163399 437045173#1 437045173#2 437045173#3 437045173#4 437045173#6 329163400#1 82433536 329163402#0 329163402#2 248963104#1 119810553#1 119810553#2 119810553#3 119810565#1 119810565#2 119810565#3 119810565#4 119810565#5 119810565#6 119810565#8 119810565#9 119810562#0 119810562#1 119810562#2 119810562#3 119810562#4 119810562#5 119810562#6 119810562#7 119810570#0 119810570#1 119810570#2 458648630#0 458648630#1 458648630#2 638458256 551284434#1 551284434#2 551284437#0 551284437#1 521057238#1 653971214 -653971212 -659226747 -521057237#1 -521057237#0 -104043216 -111393025 229943906#0 229943906#1 262649859 262649858 156517055 156729447 4396732                        "></route></vehicle>
    <vehicle type="passenger1a" depart="2240.00" id="a1a28"><route edges="47356744 178988631 156729446 136776464 156725930 328847936 67486819 67486821 67486811 4399096 262649859 262649858 156517055 156729447 4396732                        "></route></vehicle>
    <vehicle type="passenger1a" depart="2320.00" id="a1a29"><route edges="60251895 32460618 4433351 62073307 4705771 62073306 156517063#1 4399070 32341044 4406207 64052771 87059428 32341117 87059422#0 419882020 419882019 60302077#0 60302077#1 60302077#2 540214008 66021171#0 66021171#1 66021171#2 66021171#4 85076013#0 85076013#2 85076013#3 435017532#1 435017532#2 435017532#3 435017532#4 118254791#1 118254791#4 23076776#1 23076776#2 304505287#0 265319796#1 293803044#1 262771814#1 262771814#2 288671397#0 288671397#1 293803041#0 293803041#1 293803041#2 238008364 293803042#0 288248506#0 288248506#1 288248504 243480577 -38820340#3 -38820340#1 -116353640#3 -116353640#2 -116353640#1 -116353640#0 -265319793 -431726761 -220173775#1 431726762#1 25116776#0 25116776#2 25116776#3 25116776#4 25116776#5 25116776#8 596568012#1                        "></route></vehicle>
    <vehicle type="passenger1a" depart="2400.00" id="a1a30"><route edges="4453190#0 4453190#1 4453190#2 320744207#0 117813679 320744210#1 320744211 117813695#0 117813695#1 460792171 475533462#0 475533462#1 117813685 -66310433#0 -4453200 -35156860#1 -35156860#0 -613501570 -35135627 4406215#0 4406215#1 79085682 32089657#0 32089657#1 -64052827#0 -64052828#1 -64052828#0 -66877092#5 -66877092#4 -66877092#3 -66877092#2 -66877092#1 -66877092#0 -419882031#1 -419882031#0 -24646002#11 -24646002#10 -24646002#9 -24646002#8 -24646002#7 -24646002#6 -24646002#5 -24646002#4 -24646002#3 -24646002#2 -24646002#1 -24646002#0 -60302077#2 -60302077#1 -60302077#0 -520786903 -419882020 419882018 -419882010#0                        "></route></vehicle>
    <vehicle type="passenger1a" depart="2640.00" id="a1a33"><route edges="328847934#0 328847934#3 328847928#1 328847922#2 328847905#0 328847870 328847871 156517059 62072522#1 463981123 179060432 179061345#1 4399101#0 4399101#1 329286271 53376240 482265404 4399100 329286233 329286232#0 4395415#0 4395415#1 4395415#2 328972784#0 328972784#1 325996410 328972785 104728237#0 104728237#1 104728237#2 104728237#3 289112669#0 289112669#1 289112669#2 328972805#0 328972805#1 149149061 34074908#0 34074908#1 34074908#2 34074908#3 34074908#4                        "></route></vehicle>
    <vehicle type="passenger1a" depart="2720.00" id="a1a34"><route edges="24993817 -63108317#1 -63108317#0 24993799 62836477 62836479#1 62072523#0 62072523#1 32341117 4406208 87059432 64052774 32460618 151288342 156724778 463982793#1 62115073#1 444240350 156517055 156729450 178988487#1 639759316 152597286 178988486#2 152597287#0 152597287#1 152597287#2 152597287#3 152597287#5 152597287#6 219716854 219716857#0 219716857#1 219716856#0 -4609572#2 -4609572#1 -4609571#3 -4609567#5 -4609567#4 -4609567#3 -4609567#2 -4609567#1 -4609567#0                        "></route></vehicle>
    <vehicle type="passenger1a" depart="2800.00" id="a1a35"><route edges="-4624431 -4624430#2 329163422#4 329163414 -329163405#1 -329163405#0 -329163407#2 -329163407#1 -329163407#0 -4427331#2 34074419 -329163394#2 -329163394#1 -329163394#0 -4427332#2 -4427332#1 -4427332#0 4624406#0 4624406#1 329163392#0 329163392#1 329163393#0 329163393#1 597799270#0 597799270#1 4427335#0 4427335#1 4427335#2 4427335#3 4427335#4 4427335#6 170598141#0 170598141#1 170598141#2 260136547#0 260136547#1 328852473 659226748 521057238#0 521057238#1 653971214 -653971212 -659226747 -521057237#1 -521057237#0 -104043216 -111393025 4570090#1 4399095 328847936 67486819 4399098 328847871 156517059 62072522#1 463981123 179060432 179061345#1 4399101#0 4399101#1 329286271 53376240 463983939#0 89972201#1 329286297 329286300 4441825#0 4441825#1 4441829                        "></route></vehicle>
    <vehicle type="passenger1a" depart="2960.00" id="a1a37"><route edges="53856394#0 53856394#1 590035773 457679900#1 328847941#0 328847941#1 328847941#2 -4399112 156729452 288356688 156729446 156517058 179060432 179061345#1 4399101#0 4399101#1 329286271 53376240 463983939#0 89972201#1 329286297 329286300 4441825#0 4441825#1 4441825#2 -329286256#2 -329286256#0 -329286255 -329286257 4441817#0 4441817#1 4441817#2                        "></route></vehicle>
    <vehicle type="passenger1a" depart="3040.00" id="a1a38"><route edges="-4705777#4 -4705777#1 -4705777#0 -531527811#13 -531527811#12 -531527811#11 -531527811#10 -531527811#9 -531527811#8 -531527811#7 -531527811#6 -531527811#5 -531527811#4 -531527811#2 -531527811#1 222826764 641535063#1 328852474 659223380 4386508#0 4386508#1 641535062#0 641535062#1 -521057237#1 -521057237#0 -104043216 -111393025 229943906#0 229943906#1 262649859 262649858 156517055 156729447 4396732                        "></route></vehicle>
    <vehicle type="passenger1a" depart="3120.00" id="a1a39"><route edges="227562699#0 227562699#1 227562699#2 227562699#3 227562699#4 227562699#6 328847905#0 328847935 67486821 67486811 4399096 262649859 262649858 156517055 156729450 178988487#1 639759316 152597286 178988486#2 152597287#0 152597287#1 152597287#2 152597287#3 152597287#5 152597287#6 219716854 219716857#0 219716857#1 219716856#0 -4609572#2 -4609572#1 -4609572#0                        "></route></vehicle>
    <vehicle type="passenger1a" depart="3280.00" id="a1a41"><route edges="4432382#0 4432383#1 4432383#2 4432390#1 4432390#2 4432390#3 4432392#0 4432392#1                        "></route></vehicle>
    <vehicle type="passenger1a" depart="3360.00" id="a1a42"><route edges="4432382#0 4432383#1 4432383#2 4432390#1 4432390#2 4432390#3 4432392#0 4432392#1                        "></route></vehicle>
    <vehicle type="passenger1a" depart="3440.00" id="a1a43"><route edges="252716209 -4627984#9 -4627984#8 -4627984#7 -4627984#6 -4627984#4 4628012#0 4628012#1 4628010#2 97166541#2 97166541#4 131752806#0 131752806#1 285590635#0 285590635#1 285590636#0 285590636#1 52503498#0 52503498#1 561501782 460052912#1 119810565#1 119810565#2 119810565#3 119810565#4 119810565#5 119810565#6 119810565#8 119810565#9 119810562#0 119810562#1 119810562#2 119810562#3 119810562#4 119810562#5 119810562#6 119810562#7 119810570#0 119810570#1 119810570#2 458648630#0 458648630#1 458648630#2 638458256 551284434#1 551284434#2 551284437#0 551284437#1 653965403#0 653965403#1 641535065 -641535063#1 -641535063#0 -531527809#1 -531527809#0 -653999909 -653890304 -4399110 385836126#0 535301458 583922141 328847940 653805453 638446703 -328847941#2 -328847941#1 -328847941#0 -457679900#1 -590035773 -53856394#1 -53856394#0                        "></route></vehicle>
    <vehicle type="passenger1a" depart="3520.00" id="a1a44"><route edges="53856394#0 53856394#1 590035773 457679900#1 328847941#0 328847941#1 328847941#2 -4399112 156729452 288356688 156729446 136776464 156725930 328847936 67486819 67486821 67486811 4399096 262649859 262649858 156517055 156729447 4396732                        "></route></vehicle>
    <vehicle type="passenger1a" depart="3600.00" id="b1a0"><route edges="241958095 -241953984#1 -241953984#0 172205449#1 4427359#1 4427359#2 4628035#0 4628035#1 4628031#0 4628031#1 4628031#2 4628031#3 -97166541#4 -97166541#3 -97166541#0 -241955501 241955496#1 241955496#2 241955496#3 397626745#0 397626745#1 171575216 22819689#0 22819689#1 22819692 22819691#0 18921550#1 425873849#1 425873848#1 425873848#2 425873848#3 67022241#0 24646013#1 24646013#2 -243480578#3 -243480578#2 -243480578#0 -85076013#3 -85076013#2 -85076013#0 -66021171#4 -66021171#2 -66021171#1 -66021171#0 -613501578 -60302077#2 -60302077#1 -60302077#0 -520786903 -419882020 419882018 -419882010#0                       "></route></vehicle>
    <vehicle type="passenger1a" depart="3780.00" id="b1a2"><route edges="84018136#0 84018136#1 84018136#2 28432039#1 28432039#2 28432039#3 62836481 68034410#0 68034410#1 317794101#1 68034419 23723683 38820721 68034414 23076777 68034420#0 68034420#1 62073305#0 62073305#1 62073305#2 62073305#3 62073305#4 419882007 32040289#0 419882009#0 419882009#1 23076778#1 397626752#0 18921550#1 425873849#1 425873848#1 425873848#2 425873848#3 67022241#0 24646013#1 24646013#2 -243480578#3 -243480578#2 -243480578#0 -85076013#3 -85076013#2 -85076013#0 -66021171#4 -66021171#2 -66021171#1 -66021171#0 -613501578 -60302077#2 -60302077#1 -60302077#0 -520786903 -419882020 -87059422#0 62073787 87059432 64052774 32460618 4433351 62073307 4399103#1 51732984#1 328972785 104728237#0 104728237#1 104728237#2 104728237#3 289112669#0 289112669#1 289112669#2 328972805#0 328972805#1 132314084#0 132314084#1 149149062 -453800738#1 -453800738#0 -454027479 -4432374#5 -4432374#4 -4432374#3 -4432374#2 -4432374#0 -4432390#4 4432392#0 4432392#1                       "></route></vehicle>
    <vehicle type="passenger1a" depart="3870.00" id="b1a3"><route edges="4432385#0 -4432383#1 -4432383#0 -4432378#0 329286293#1 329286293#2 650203661#1 -454027476 -329286268#0 -328972789#4 -328972789#2 -328972789#1 -386257052 -149149062 4406220 4406222 28409487 34075504#0 34075504#1 4405120#1 4405120#2 34074851 328972803#0 328972803#1 4432768#0 51733196#0 387911767#0 387911767#1 387911767#2 4387602#0 4387602#1 4387602#2 4387602#3 4395414 439208434 328962569#0 328962569#1 328962569#2 4427352#0 4427352#1 243122790 58950779 84033917 480884810 79085675#2 452730845 484029325 328962566#1 328962566#2 328852476#0 328852476#1 639360257 4427354#0 4427354#1 385545839#0 385545839#1 385545839#3 385545839#4 385545839#5 385545839#6 385545839#7 385545839#9 385545839#10 385545839#11 248963106#0 248963106#1 248963106#2 248963106#3 248963106#4 329163403#1 329163403#2 329163403#3 329163403#4 329163403#5 329163403#6 329163403#7 4427330#0 4427330#1 329163395 103667851 329163422#0 329163422#1 329163422#2 329163422#3 329163422#4 329163414 329163421#0 329163421#1 329163421#2 329163423#0 329163423#1 329163423#2 329163423#3 329163423#5 329163417 329163415 329163419#0 252378479#0 252378479#1 177172368 329163391#0 329163391#2 329163391#3                       "></route></vehicle>
    <vehicle type="passenger1a" depart="3960.00" id="b1a4"><route edges="-584518943#2 23481363#0 23481363#1 23481363#2 23481363#3 23481363#4 23481363#5 23481363#7 23481363#8 -23481356#3 -23481356#2 -23481356#1 79085677#0 79085677#1 79085677#2 4406212#0 4406212#1 318728069 32089666 4406216 59164973 79085682 32089657#0 32089657#1 -64052827#0 -64052828#1 -64052828#0 -32040298#3 -32040298#2 -32040298#1 -292766807#0 -278544265 -219662934#0 288248508#0 288248508#1 293803042#0 288248506#0 288248506#1 288248504 243480577 -38820340#3 -38820340#1 472350012#1 23723679#0 23723679#1 23723679#2 266925780#0 266925780#1 266925780#2 32040289#0 419882009#0 419882009#1 23076778#1 397626752#0 -22819691#0 -64942328 -22819689#1 -22819689#0 -22819690 -397626745#1 -397626745#0 -241955496#3 -241955496#2 -241955496#1 241955501 172207939#3 172207939#5 199402826#0 199402826#1 199402826#2 199402826#3 199402826#4 4628048                       "></route></vehicle>
    <vehicle type="passenger1a" depart="4050.00" id="b1a5"><route edges="-4441817#2 -4441817#1 -4441817#0 329286257 329286255 329286256#0 329286256#1 385816798#0 385816798#2 328972801#0 328972801#2 328972799#3 156517089#0 328972784#0 328972784#1 153365261#0 387911767#0 387911767#1 387911767#2 4387602#0 4387602#1 4387602#2 4387602#3 4395414 439208434 328962569#0 328962569#1 328962569#2 4427352#0 4427352#1 243122790 58950779 84033917 480884810 79085675#2 452730845 484029325 328962566#1 328962566#2 328852476#0 328852476#1 639360257 4427354#0 4427354#1 385545839#0 385545839#1 385545839#3 385545839#4 462397653#4 4427345#2 4427345#3 4427345#4 4427345#5 4427345#6 4427345#7 4427345#8 -172205449#1 241953984#0 241953984#1 -241958095                       "></route></vehicle>