<routes>
<vType maxSpeed="55.00" probability="0.20" color="204,204,204" accel="3.4" decel="4.4" vClass="passenger" emergencyDecel="4.5" length="4.50" minGap="1.00" speedFactor="normc(1.00,0.10,0.20,2.00)" sigma="0.5" id="passenger2c"/>
    <vehicle type="passenger2c" depart="80.00" id="a2c1"><route edges="-4705777#4 -4705777#1 -4705777#0 -531527811#13 -531527811#12 -531527811#11 -531527811#10 -531527811#9 -531527811#8 -531527811#7 -531527811#6 -531527811#5 -531527811#4 -531527811#2 -531527811#1 222826764 641535063#1 328852474 659223380 4386508#0 4386508#1 641535062#0 641535062#1 -521057237#1 -521057237#0 -104043216 -111393025 4570090#1 4399095 328847936 67486819 4399098 328847871 156517059 62072522#1 463981123 179060432 179061345#1 156724777 666512604 32341044 32460642                        "></route></vehicle>
    <vehicle type="passenger2c" depart="160.00" id="a2c2"><route edges="24993817 -63108317#1 -63108317#0 24993799 62836477 62836479#1 62072523#0 62072523#1 32341117 4406208 87059432 64052774 32460618 151288342 156724778 463982793#1 62115073#1 444240350 156517055 156729450 178988487#1 639759316 152597286 178988486#2 152597287#0 152597287#1 152597287#2 152597287#3 152597287#5 152597287#6 219716854 219716857#0 219716857#1 219716856#0 -4609572#2 -4609572#1 -4609572#0                        "></route></vehicle>
    <vehicle type="passenger2c" depart="240.00" id="a2c3"><route edges="60251895 32460618 151288342 156724778 463982793#1 62115073#1 62114271 156517085 156725931 4399104#0 4399104#1 25634944 104043216 659223504 521057237#1 659226747 653971212 -653971214 -521057238#1 653965403#0 653965403#1 641535065 -641535063#1 -641535063#0 531527811#1 531527811#2 531527811#3 531527811#5 531527811#6 531527811#7 531527811#8 531527811#9 531527811#10 531527811#11 531527811#12 531527811#13 38820355 4705777#1 4705777#3                        "></route></vehicle>
    <vehicle type="passenger2c" depart="320.00" id="a2c4"><route edges="4627939#0 4627939#1 4627939#2 4627939#3 4627939#4 4627939#5 4627939#6 4627941 4627942#7 4627943#0 241955504#1 241955504#2 328962564#0 328962564#1 -328962563#1 -328962563#0 -242045600#2 -242045600#1 -242045600#0 -328962561#0 -242047953 -519317749 -328962562#1 -328962562#0 -245503037#1 -245503037#0 -602257867#5 -602257867#4 -602257867#2 -602257867#1 -602257867#0 -397626754#5 -397626754#4 -397626754#3 -397626754#1 -397626754#0 -242930246#2 -242930246#1 -397626756#0 -458123179#4 -458123179#3 -458123179#2 -458123179#1 -241955498#5 -241955498#4 -241955498#3 -241955498#2 -241955498#1 133039163#0 82433538 133039154#0 110263753#0 110263753#2 110263757#0 110263757#1 329163388#1 329163386 329163390 38820724#1 38820724#3 4427342#0 4427342#1 4427342#2 339934062 32202364 -164209811#4 -164209811#3 -164209811#2 -164209811#1 61319337#1 61319337#3 61319337#4 329163413 252378478#0 252378478#1 177172368 329163391#0 -204335597#0                        "></route></vehicle>
    <vehicle type="passenger2c" depart="400.00" id="a2c5"><route edges="419882010#0 -419882018 419882020 419882019 60302077#0 60302077#1 60302077#2 540214008 66021171#0 66021171#1 66021171#2 66021171#4 85076013#0 85076013#2 85076013#3 435017532#1 435017532#2 435017532#3 435017532#4 118254791#1 118254791#4 23076776#1 23076776#2 304505287#0 265319796#1 293803044#1 262771814#1 262771814#2 288671397#0 288671397#1 293803041#0 293803041#1 293803041#2 288248509#0 288248509#1 219662934#0 278544265 292766807#0 38820338#1 38820338#2 35135625#0 35135625#1 24907061#1 24907061#2 -288319660 -187913310                        "></route></vehicle>
    <vehicle type="passenger2c" depart="480.00" id="a2c6"><route edges="4432385#0 -4432383#1 -4432383#0 -4432378#0 329286293#1 329286293#2 650203661#1 -454027476 -329286268#0 -328972789#4 -328972789#2 -328972789#1 -386257052 -149149062 4406220 4406222 28409487 34075504#0 34075504#1 4405120#1 4405120#2 34074851 328972803#0 328972803#1 4432768#0 53376236 326814541#1 326814541#2 326814540 53376237 328972780 62073306 156517063#1 4399070 32341044 32460642                        "></route></vehicle>
    <vehicle type="passenger2c" depart="560.00" id="a2c7"><route edges="61335701#0 61335701#1 -19277198#1 -19277198#0 -613501578 -60302077#2 -60302077#1 -60302077#0 -520786903 -419882020 -87059422#0 62073787 87059432 64052774 32460618 151288342 156724778 463982793#1 62115073#1 444240350 156517055 156729450 178988487#1 639759316 152597286 178988486#2 152597287#0 152597287#1 152597287#2 152597287#3 152597287#5 152597287#6 219716854 219716857#0 219716857#1 219716856#0 -4609572#2 -4609572#1 -4609572#0                        "></route></vehicle>
    <vehicle type="passenger2c" depart="640.00" id="a2c8"><route edges="-186702383 4627941 4627942#7 4627943#0 241955504#1 241955504#2 328962564#0 328962564#1 241955506#0 241955506#1 241955506#2 241955506#4 585488761#0 585488761#1 243122790 58950779 84033917 480884810 79085675#2 452730845 484029325 328962566#1 328962566#2 328852476#0 328852476#1 639360257 669403496 157933010#0 157933010#1 157933010#2 458648630#0 458648630#1 458648630#2 638458256 551284434#1 551284434#2 551284437#0 551284437#1 653965403#0 653965403#1 641535065 -641535063#1 -641535063#0 4609554#0 4609554#1 4609556#0 4609556#1 -4609558#16 -4609558#15 -4609558#14 -4609558#13 -4609558#12 4609571#0 4609571#1 4609571#2 4609571#3 -4609572#0                        "></route></vehicle>
    <vehicle type="passenger2c" depart="720.00" id="a2c9"><route edges="-69687227#1 69687227#1 24646017 -293803034#2 -293803034#1 265319796#1 293803044#1 262771814#1 262771814#2 288671397#0 288671397#1 293803041#0 293803041#1 293803041#2 238008364 293803042#0 288248506#0 288248506#1 288248504 243480577 -38820340#3 -38820340#1 -116353640#3 -116353640#2 -116353640#1 -116353640#0 -265319793 -431726761 -220173775#1 431726762#1 25116776#0 25116776#2 25116776#3 25116776#4 25116776#5 25116776#8 596568012#1                        "></route></vehicle>
    <vehicle type="passenger2c" depart="800.00" id="a2c10"><route edges="-4441817#2 -4441817#1 -4441817#0 329286257 329286255 329286256#0 329286256#1 -4441825#3 -4441825#1 -4441825#0 -329286300 -329286297 -457627968 4442538#1 329286299 180166725 463981127 4442537 156724778 463982793#1 62115073#1 444240350 156517055 156729450 178988487#1 639759316 152597286 178988486#2 152597287#0 152597287#1 152597287#2 152597287#3 152597287#5 152597287#6 219716854 219716857#0 219716857#1 219716856#0 -4609572#2 -4609572#1 -4609572#0                        "></route></vehicle>
    <vehicle type="passenger2c" depart="880.00" id="a2c11"><route edges="328847934#0 328847934#3 328847928#1 328847922#2 328847905#0 328847935 67486821 4399104#0 4399104#1 25634944 104043216 458657025#0 458657025#1 531527813 138011859#0 458648634#1 458651454#0 458651454#1 639360272#1 639360276#0 639360276#1 639360276#2 639360276#3 639360257 4427354#0 4427354#1 385545839#0 385545839#1 385545839#3 385545839#4 385545839#5 385545839#6 385545839#7 385545839#9 385545839#10 385545839#11 248963106#0 248963106#1 248963106#2 248963106#3 248963106#4 329163403#1 329163403#2 329163403#3 329163403#4 329163403#5 329163403#6 329163403#7 -136781632#0 -329163402#0 -82433536 -329163400#1 -329163400#0 -437045173#5 -437045173#3 -437045173#2 -437045173#1 -437045173#0 -727108696 -82433543#0 110263759#0 110263759#2 329163401 4453202 248783824 68034411#0 68034411#1 23723680 68034422 23723682 4453198#0 4453198#1 68034417 317794132 220173782#1 317794133#2 -219662933#0 -536569901#4 -536569901#3 -536569901#2 -536569901#1 196615001#1 196615001#2 122121092#2                        "></route></vehicle>
    <vehicle type="passenger2c" depart="960.00" id="a2c12"><route edges="-596568012#1 -25116776#8 -25116776#6 -25116776#4 -25116776#3 -25116776#2 -25116776#0 -431726762#1 -220173782#1 -317794132 -68034417 68034415#0 68034415#1 68034423 68034419 23723683 4453203#0 4453203#1 -248783828 -4453202 -329163401 -4453205 -110263759#1 119796455#1 727108696 329163399 437045173#1 437045173#2 437045173#3 437045173#4 437045173#6 329163400#1 82433536 329163402#0 329163402#2 248963104#1 119810553#1 119810553#2 119810553#3 119810565#1 119810565#2 119810565#3 119810565#4 119810565#5 119810565#6 119810565#8 119810565#9 119810562#0 119810562#1 119810562#2 119810562#3 119810562#4 119810562#5 119810562#6 119810562#7 119810570#0 119810570#1 119810570#2 458648630#0 458648630#1 458648630#2 638458256 551284434#1 551284434#2 551284437#0 551284437#1 653965403#0 653965403#1 641535065 -641535063#1 -641535063#0 -531527809#1 -531527809#0 -653999909 -653890304 -4399110 385836126#0 535301458 583922141 328847940 653805453 638446703 -328847941#2 -328847941#1 -328847941#0 -457679900#1 -590035773 -53856394#1 -53856394#0                        "></route></vehicle>
    <vehicle type="passenger2c" depart="1040.00" id="a2c13"><route edges="328847934#0 328847934#3 328847928#1 328847922#2 328847905#0 328847870 328847871 156517059 62072522#1 463981123 179060432 179061345#1 156724777 666512604 32341044 4406207 64052771 87059428 177007417#0 177007417#1 59475140#0 23481356#1 23481356#2 23481356#3 -23481363#8 -23481363#7 -23481363#5 -23481363#4 -23481363#3 -23481363#2 -23481363#1 -23481363#0 584518943#2                        "></route></vehicle>
    <vehicle type="passenger2c" depart="1120.00" id="a2c14"><route edges="60251895 32460618 4433351 62073307 4705771 62073306 156517063#1 4399070 32341044 4406207 64052771 87059428 177007417#0 177007417#1 59475140#0 79085677#0 79085677#1 79085677#2 4406212#0 4406212#1 318728069 23047005#0 23047005#1 64052824#0 64052824#1 46695723#1 46695723#2 -46696030#5 -46696030#2 -46696030#1 34932488#1 34932488#2 34932488#3 34932488#4 34932488#5 34932488#6 34932488#7 34932488#8 34932488#9 34932488#10 34932488#11 34932488#12 34932488#13 34932488#14 -35135632#4 -35135632#3 -35135632#2 -35135632#1 -35135632#0                        "></route></vehicle>
    <vehicle type="passenger2c" depart="1200.00" id="a2c15"><route edges="4567395 589943086 -589943087 -4567401#1 590035773 457679900#1 328847941#0 328847941#1 328847941#2 -4399112 156729452 288356688 156729446 136776464 156725930 328847936 67486819 67486821 67486811 4399096 262649859 262649858 156517055 156729447 4396732                        "></route></vehicle>
    <vehicle type="passenger2c" depart="1280.00" id="a2c16"><route edges="-399370052 -399370048 -677322184#1 677322182 657044730#1 657044730#2 677745868#0 677745868#1 4386508#1 641535062#0 641535062#1 653817485#0 653817485#1 531527813 138011859#0 458648634#1 458651454#0 458651454#1 639360272#1 639360276#0 639360276#1 639360276#2 639360276#3 639360257 4427354#0 4427354#1 385545839#0 385545839#1 385545839#3 385545839#4 385545839#5 385545839#6 385545839#7 385545839#9 385545839#10 385545839#11 248963106#0 248963106#1 248963106#2 248963106#3 248963106#4 329163403#1 329163403#2 329163403#3 329163403#4 329163403#5 329163403#6 329163403#7 -136781632#0 -329163402#0 -82433536 -329163400#1 -329163400#0 -437045173#5 -437045173#3 -437045173#2 -437045173#1 -437045173#0 -727108696 -82433543#0 110263759#0 110263759#2 329163401 4453202 248783824 68034411#0 68034411#1 23723680 68034422 23723682 4453198#0 4453198#1 68034417 317794132 220173782#1 431726762#1 25116776#0 25116776#2 25116776#3 25116776#4 25116776#5 25116776#8 -594086993#5 67652230#1                        "></route></vehicle>
    <vehicle type="passenger2c" depart="1440.00" id="a2c18"><route edges="-4432392#1 -4432392#0 4432390#4 4432374#0 4432374#1 4432374#3 4432374#4 4432374#5 4432374#7 453800738#0 453800738#1 -149149062 4406220 4406222 28409487 34075504#0 34075504#1 4405120#1 4405120#2 34074851 328972803#0 328972803#1 4432768#0 53376236 326814541#1 326814541#2 326814540 53376237 328972780 62073306 156517063#1 4399070 32341044 4406207 64052771 87059428 177007417#0 177007417#1 59475140#0 79085677#0 79085677#1 79085677#2 4406212#0 4406212#1 318728069 32089666 4406216 4406214#0 4406214#1 35135627 613501570 613501572 35156860#1 4453197#0 4453197#1 66310448 164600250 -320744211 -320744210#1 -320744210#0 -320744207#0 -4453190#2 -4453190#1 -4453190#0                        "></route></vehicle>
    <vehicle type="passenger2c" depart="1520.00" id="a2c19"><route edges="60251895 32460618 4433351 62073307 4399103#1 387911767#0 387911767#1 387911767#2 4387602#0 4591084 4591087#0 -4591087#0                        "></route></vehicle>
    <vehicle type="passenger2c" depart="1600.00" id="a2c20"><route edges="-597992541#6 -4624436#9 -4624436#8 -4624436#7 -4624436#3 -4624436#1 329163417 329163415 329163419#0 252378479#0 252378479#1 177172368 329163391#0 -204335597#0                        "></route></vehicle>
    <vehicle type="passenger2c" depart="1680.00" id="a2c21"><route edges="4627939#0 4627939#1 4627939#2 4627939#3 4627939#4 4627939#5 4627939#6 4627941 4627942#7 4627943#0 241955504#1 241955504#2 328962564#0 328962564#1 242949070#0 242949070#1 326814543 104841469 157280271#0 157280271#1 -227562704#3 -227562704#1 -442440281 -442440279#4 -442440279#3 -442440279#2 -4591064#1 -4591064#0 4570093#0 4570093#1 170598160 170598162 684076812#0 684076812#1 684076812#2 246293271#1 684076816#0 684076816#1 684076816#2 451199023#0 451199023#1 4570088#0 4570088#1 229943906#1 262649859 262649858 156517055 156729447 4396732                        "></route></vehicle>
    <vehicle type="passenger2c" depart="1840.00" id="a2c23"><route edges="61236489 -18921552#1 18921550#1 425873849#1 425873848#1 425873848#2 425873848#3 67022241#0 24646013#1 24646013#2 -243480578#3 -243480578#2 -243480578#0 -85076013#3 -85076013#2 -85076013#0 -66021171#4 -66021171#2 -66021171#1 -66021171#0 -613501578 -60302077#2 -60302077#1 -60302077#0 -520786903 -419882020 -87059422#0 62073787 87059432 64052774 32460618 4433351 62073307 4399103#1 51732984#1 328972785 104728237#0 104728237#1 104728237#2 104728237#3 289112669#0 289112669#1 289112669#2 328972805#0 328972805#1 132314084#0 132314084#1 149149062 386257052 328972789#0 328972789#2 328972789#4 328972789#5 4432380#0 4432380#1 -4432378#2 -4432378#1 4432383#0 4432383#1 -4432385#0                        "></route></vehicle>
    <vehicle type="passenger2c" depart="1920.00" id="a2c24"><route edges="-596568012#1 -25116776#8 -25116776#6 -25116776#4 -25116776#3 -25116776#2 -25116776#0 -431726762#1 220173775#1 431726761 265319793 116353640#0 116353640#1 116353640#2 116353640#3 38820340#1 38820340#3 38820340#5 -288248504 288248505#0 288248505#1 293803042#2 288671398#0 288671398#1 -262771814#2 -262771814#1 -293803044#1 -293803044#0 -304505287#0 -23076776#2 -23076776#1 -23076776#0 -118254791#2 -435017532#4 -435017532#3 -435017532#2 -435017532#1 -85076013#3 -85076013#2 -85076013#0 -66021171#4 -66021171#2 -66021171#1 -66021171#0 -613501578 -60302077#2 -60302077#1 -60302077#0 -520786903 -419882020 -87059422#0 62073787 87059432 64052774 32460618 4433351 62073307 4399103#1 51732984#1 328972785 104728237#0 104728237#1 104728237#2 104728237#3 289112669#0 289112669#1 289112669#2 328972805#0 328972805#1 132314084#0 132314084#1 149149062 -453800738#1 -453800738#0 -454027479 -4432374#5 -4432374#4 -4432374#3 -4432374#2 -4432374#0 -4432390#4 4432392#0 4432392#1                        "></route></vehicle>
    <vehicle type="passenger2c" depart="2000.00" id="a2c25"><route edges="-172894344#3 329163403#1 329163403#2 329163403#3 329163403#4 329163403#5 329163403#6 329163403#7 -136781632#0 -329163402#0 -82433536 -329163400#1 -329163400#0 -437045173#5 -437045173#3 -437045173#2 -437045173#1 -437045173#0 -727108696 -82433543#0 110263759#0 110263759#2 329163401 4453202 248783824 68034411#0 68034411#1 23723680 68034422 23723682 4453198#0 4453198#1 68034417 317794132 -240973715#5 -240973715#3 -240973715#2                        "></route></vehicle>
    <vehicle type="passenger2c" depart="2080.00" id="a2c26"><route edges="-4432392#1 -4432392#0 4432390#4 4432374#0 4432374#1 4432374#3 4432374#4 4432374#5 4432374#7 453800738#0 453800738#1 -149149062 4406220 4406222 28409487 34075504#0 34075504#1 4405120#1 4405120#2 34074851 328972803#0 328972803#1 4432768#0 53376236 326814541#1 326814541#2 326814540 53376237 328972780 62073306 156517063#1 4399070 32341044 4406207 64052771 87059428 32341117 87059422#0 419882020 23019181#0 23019181#1 23019181#2 24645209                        "></route></vehicle>
    <vehicle type="passenger2c" depart="2160.00" id="a2c27"><route edges="47356744 178988631 156729446 156517058 179060432 179061345#1 156724777 666512604 32341044 4406207 64052771 62072524#0 62072524#1 -62836479#1 -62836477 -26763943#3 -26763943#2 -26763943#1 -24993759#6 -24993759#5 -24993875#1 -24993875#0 63108317#1 -61328647#0                        "></route></vehicle>
    <vehicle type="passenger2c" depart="2240.00" id="a2c28"><route edges="-252616539#1 -252616539#0 597799270#0 597799270#1 4427335#0 4427335#1 4427335#2 4427335#3 4427335#4 4427335#6 170598141#0 170598141#1 170598141#2 260136547#0 260136547#1 328852473 659226748 521057238#0 521057238#1 653971214 -653971212 -659226747 -521057237#1 -521057237#0 -104043216 -111393025 229943906#0 229943906#1 262649859 262649858 156517055 156729447 4396732                        "></route></vehicle>
    <vehicle type="passenger2c" depart="2320.00" id="a2c29"><route edges="47356744 178988631 156729446 136776464 156725930 328847936 67486819 67486821 4399104#0 4399104#1 25634944 104043216 458657025#0 458657025#1 531527813 138011859#0 458648634#1 458651454#0 458651454#1 639360272#1 639360276#0 639360276#1 639360276#2 639360276#3 639360257 4427354#0 4427354#1 385545839#0 385545839#1 385545839#3 385545839#4 385545839#5 385545839#6 385545839#7 385545839#9 385545839#10 385545839#11 248963106#0 248963106#1 248963106#2 248963106#3 248963106#4 329163403#1 329163403#2 329163403#3 329163403#4 329163403#5 329163403#6 329163403#7 -136781632#0 -329163402#0 -82433536 -329163400#1 -329163400#0 -437045173#5 -437045173#3 -437045173#2 -437045173#1 -437045173#0 -727108696 -82433543#0 110263759#0 110263759#2 329163401 4453202 248783824 68034411#0 68034411#1 23723680 68034422 23723682 4453198#0 4453198#1 68034417 317794132 220173782#1 317794133#2 35156858#1 317794135#0 108781925#1 238314835#0 238314835#1 238314835#2 238314835#3 511316307 511316304                        "></route></vehicle>
    <vehicle type="passenger2c" depart="2400.00" id="a2c30"><route edges="61236489 -18921552#1 -22819691#0 -64942328 -22819689#1 -22819689#0 -22819690 -397626745#1 -397626745#0 -241955496#3 -241955496#2 -241955496#1 241955501 97166541#0 97166541#2 97166541#4 131752806#0 131752806#1 285590635#0 285590635#1 285590636#0 285590636#1 52503498#0 52503498#1 561501782 460052912#1 119810565#1 119810565#2 119810565#3 119810565#4 119810565#5 119810565#6 119810565#8 119810565#9 119810562#0 119810562#1 119810562#2 119810562#3 119810562#4 119810562#5 119810562#6 119810562#7 119810570#0 119810570#1 119810570#2 458648630#0 458648630#1 458648630#2 638458256 551284434#1 551284434#2 551284437#0 551284437#1 653965403#0 653965403#1 641535065 -641535063#1 -641535063#0 -531527809#1 -531527809#0 -653999909 -653890304 -4399110 385836126#0 535301458 583922141 328847940 653805453 638446703 -328847941#2 -328847941#1 -328847941#0 -457679900#1 -531527808#2 -531527808#1 -531527808#0                        "></route></vehicle>
    <vehicle type="passenger2c" depart="2560.00" id="a2c32"><route edges="241958095 -241953984#1 -241953984#0 172205449#1 4427359#1 4427359#2 4628035#0 4628035#1 4628031#0 4628031#1 4628031#2 4628031#3 -97166541#4 -97166541#3 -97166541#0 -241955501 242930246#1 242930246#2 397626754#0 397626754#1 397626754#3 397626754#4 397626754#5 602257867#0 602257867#1 602257867#2 602257867#4 602257867#5 245503037#0 245503037#1 328962562#0 328962562#1 328962562#2 242047953 328962561#0 328962561#1 242045600#1 242045600#2 328962563#0 328962563#1 242949070#0 242949070#1 326814543 104841469 256078750#0 256078750#2 442440282 256078751 115670818#0 4396711#0 91395028 328972796#0 328972796#1 328972796#2 329286304#0 329286304#1 -329286256#2 -329286256#0 -329286255 -329286257 -329286254#0 -329286258#5 -329286258#4 -329286258#3 -329286258#1 -329286258#0 -4441823#1 -4441823#0 4430756 686962510                        "></route></vehicle>
    <vehicle type="passenger2c" depart="2640.00" id="a2c33"><route edges="-28216748 62756053#4 62836481 68034410#0 68034410#1 317794101#1 68034419 23723683 38820721 68034414 23076777 68034420#0 68034420#1 62073305#0 62073305#1 62073305#2 62073305#3 62073305#4 419882007 32040289#0 419882009#0 419882009#1 23076778#1 397626752#0 18921550#1 425873849#1 425873848#1 425873848#2 425873848#3 67022241#0 24646013#1 24646013#2 -243480578#3 -243480578#2 -243480578#0 -85076013#3 -85076013#2 -85076013#0 -66021171#4 -66021171#2 -66021171#1 -66021171#0 -613501578 -60302077#2 -60302077#1 -60302077#0 -520786903 -419882020 -87059422#0 62073787 87059432 64052774 32460618 4433351 62073307 4399103#1 51732984#1 328972785 104728237#0 104728237#1 104728237#2 104728237#3 289112669#0 289112669#1 289112669#2 328972805#0 328972805#1 149149061 34074908#0 34074908#1 34074908#2 34074908#3 34074908#4                        "></route></vehicle>
    <vehicle type="passenger2c" depart="2720.00" id="a2c34"><route edges="-208342250#1 -208342250#0 -4624456#1 -4624456#0 -643857930#1 -643857930#0 -34074409#0 -329163406#4 -329163406#3 -329163406#2 -329163406#1 -329163406#0 -329163405#1 -329163405#0 -329163407#2 -329163407#1 -329163407#0 -4427331#2 34074419 -329163394#2 -329163394#1 -329163394#0 -4427332#2 -4427332#1 -4427332#0 4624406#0 4624406#1 329163392#0 329163392#1 329163393#0 329163393#1 597799270#0 597799270#1 4427335#0 4427335#1 4427335#2 4427335#3 4427335#4 4427335#6 170598141#0 170598141#1 170598141#2 260136547#0 260136547#1 328852473 659226748 521057238#0 653965403#0 653965403#1 641535064#0 641535064#1 657044730#0 -677322182 677322184#1 399370048 399370052                        "></route></vehicle>
    <vehicle type="passenger2c" depart="2800.00" id="a2c35"><route edges="53856394#0 53856394#1 590035773 457679900#1 328847941#0 328847941#1 328847941#2 458961306 -535301458 -385836126#1 4399110 653890304 653999909 531527809#0 531527809#1 222826764 641535063#1 328852474 659223380 4386508#0 4386508#1 641535062#0 641535062#1 653817485#0 653817485#1 531527813 138011859#0 458648634#1 458651454#0 458651454#1 639360272#1 639360276#0 639360276#1 639360276#2 639360276#3 639360257 4427354#0 4427354#1 385545839#0 385545839#1 385545839#3 385545839#4 385545839#5 385545839#6 385545839#7 385545839#9 385545839#10 385545839#11 248963106#0 248963106#1 248963106#2 248963106#3 248963106#4 329163403#1 329163403#2 329163403#3 329163403#4 329163403#5 329163403#6 329163403#7 -136781632#0 -329163402#0 -82433536 -329163400#1 -329163400#0 -437045173#5 -437045173#3 -437045173#2 -437045173#1 -437045173#0 -727108696 -82433543#0 110263759#0 110263759#2 329163401 4453202 248783824 68034411#0 68034411#1 23723680 68034422 23723682 4453198#0 4453198#1 68034417 317794132 220173782#1 431726762#1 25116776#0 25116776#2 25116776#3 25116776#4 25116776#5 25116776#8 596568012#1                        "></route></vehicle>
    <vehicle type="passenger2c" depart="2880.00" id="a2c36"><route edges="4609567#0 4609567#1 4609567#2 4609567#3 4609567#4 4609567#5 4609571#3 4609572#1 4609572#2 -219716856#0 -219716857#1 -219716857#0 -219716854 -152597287#6 -152597287#5 -152597287#3 -152597287#2 -152597287#1 -152597287#0 583097252#1 328847950 385836126#0 535301458 583922141 328847940 653805453 638446703 -4399112 156729452 288356688 156729446 156517058 179060432 179061345#1 156724777 666512604 32341044 4406207 64052771 62072524#0 62072524#1 -62836479#1 -62836477 -26763943#3 -26763943#2 -26763943#1 -26763943#0 -60418608#2 -60418608#1                        "></route></vehicle>
    <vehicle type="passenger2c" depart="3040.00" id="a2c38"><route edges="4627939#0 4627939#1 4627939#2 4627939#3 4627939#4 4627939#5 4627939#6 4627941 4627942#7 4627943#0 241955504#1 241955504#2 328962564#0 328962564#1 -328962563#1 -328962563#0 -242045600#2 -242045600#1 -242045600#0 -328962561#0 -242047953 -519317749 -328962562#1 -328962562#0 -245503037#1 -245503037#0 -602257867#5 -602257867#4 -602257867#2 -602257867#1 -602257867#0 -397626754#5 -397626754#4 -397626754#3 -397626754#1 -397626754#0 -242930246#2 -242930246#1 -397626756#0 -458123179#4 -458123179#3 -458123179#2 -458123179#1 -241955498#5 -241955498#4 -241955498#3 -241955498#2 -241955498#1 133039163#0 82433538 80058205#0 110263759#2 329163401 4453202 248783824 68034411#0 68034411#1 23723680 68034422 23723682 38820717 68034416#0 68034416#1 68034416#3 -62836481 -28432039#3 -28432039#2 -28432039#1 -84018136#2 -84018136#1 -84018136#0                        "></route></vehicle>
    <vehicle type="passenger2c" depart="3120.00" id="a2c39"><route edges="-463414886 219662942#1 -265319793 -431726761 -220173775#1 -220173782#1 -317794132 -68034417 68034415#0 68034415#1 68034423 68034419 23723683 4453203#0 4453203#1 -248783828 -4453202 -329163401 -4453205 -110263759#1 119796455#1 727108696 329163399 437045173#1 437045173#2 437045173#3 437045173#4 437045173#6 329163400#1 82433536 329163402#0 329163402#2 248963104#1 119810553#1 119810553#2 119810553#3 119810565#1 119810565#2 119810565#3 119810565#4 119810565#5 119810565#6 119810565#8 119810565#9 119810562#0 119810562#1 119810562#2 119810562#3 119810562#4 119810562#5 119810562#6 119810562#7 119810570#0 119810570#1 119810570#2 458648630#0 458648630#1 458648630#2 638458256 551284434#1 551284434#2 551284437#0 551284437#1 653965403#0 653965403#1 641535064#0 641535064#1 657044730#0 -677322182 677322184#1 399370048 399370052                        "></route></vehicle>
    <vehicle type="passenger2c" depart="3280.00" id="a2c41"><route edges="60251895 32460618 151288342 156724778 463982793#1 62115073#1 62114271 156517085 156725931 67486811 4399095 328847936 156725924 156517067 328847919 -4705775#0 -227562699#4 -227562699#3 -227562699#2 -227562699#1 -227562699#0                        "></route></vehicle>
    <vehicle type="passenger2c" depart="3360.00" id="a2c42"><route edges="-28216748 -62756053#3 -62756053#2 -62756053#0 -25495960 -25116776#2 -25116776#0 -431726762#1 220173775#1 431726761 265319793 116353640#0 116353640#1 116353640#2 116353640#3 38820340#1 38820340#3 38820340#5 -288248504 288248505#0 288248505#1 293803042#2 288671398#0 288671398#1 -262771814#2 -262771814#1 -293803044#1 -293803044#0 -304505287#0 -23076776#2 -23076776#1 -23076776#0 -118254791#2 60180154#1                        "></route></vehicle>
    <vehicle type="passenger2c" depart="3440.00" id="a2c43"><route edges="47356744 178988631 156729446 136776464 156725930 328847936 67486819 67486821 4399104#0 4399104#1 25634944 104043216 458657025#0 458657025#1 531527813 138011859#0 458648634#1 458651454#0 458651454#1 639360272#1 639360276#0 639360276#1 639360276#2 639360276#3 639360257 4427354#0 4427354#1 385545839#0 385545839#1 385545839#3 385545839#4 385545839#5 385545839#6 385545839#7 385545839#9 385545839#10 385545839#11 248963106#0 248963106#1 248963106#2 248963106#3 248963106#4 329163403#1 329163403#2 329163403#3 329163403#4 329163403#5 329163403#6 329163403#7 -136781632#0 -329163402#0 -82433536 -329163400#1 -329163400#0 -437045173#5 -437045173#3 -437045173#2 -437045173#1 -437045173#0 -727108696 -82433543#0 110263759#0 110263759#2 329163401 4453202 248783824 68034411#0 68034411#1 23723680 68034422 23723682 4453198#0 4453198#1 68034417 317794132 220173782#1 317794133#2 35156858#1 317794135#0 117813683 117813687#0 117813687#1 -117813685 -84033910#1 -84033910#0 -460792170 -317794121#1 -317794121#0 -460792169 -460792168 -67354201 -317794119 -317794120                        "></route></vehicle>
    <vehicle type="passenger2c" depart="3600.00" id="b2c0"><route edges="60251895 32460618 151288342 156724778 463982793#1 62115073#1 444240350 156517055 156729450 178988487#1 639759316 328847950 385836126#0 535301458 583922141 328847940 653805453 638446703 -328847941#2 -328847941#1 -328847941#0 -457679900#1 4567403#1 4567403#2 4567403#3 -221656794#1 -221656794#0                       "></route></vehicle>
    <vehicle type="passenger2c" depart="3780.00" id="b2c2"><route edges="-584518943#2 584518943#2                       "></route></vehicle>
    <vehicle type="passenger2c" depart="3960.00" id="b2c4"><route edges="60251895 32460618 4433351 62073307 4705771 62073306 156517063#1 4399070 32341044 32460642                       "></route></vehicle>
    <vehicle type="passenger2c" depart="4050.00" id="b2c5"><route edges="-60298884#1 -60298884#0 -64052827#0 -64052828#1 -64052828#0 -32040298#3 -32040298#2 -32040298#1 -292766807#0 -278544265 -219662934#0 288248508#0 288248508#1 293803042#0 288248506#0 288248506#1 288248504 243480577 -38820340#3 -38820340#1 472350012#1 23723679#0 23723679#1 23723679#2 266925780#0 266925780#1 266925780#2 32040289#0 419882009#0 419882009#1 23076778#1 397626752#0 -22819691#0 -64942328 -22819689#1 -22819689#0 -22819690 -397626745#1 -397626745#0 85660425#1 85660425#2 672889050#0 672889050#1 672889050#2 4627977#0 4627977#1                       "></route></vehicle>
    <vehicle type="passenger2c" depart="4140.00" id="b2c6"><route edges="-70881805#3 -70881805#2 -70881805#1 -70881805#0 122124831#0 122124831#1 19913820 -68034420#1 -68034420#0 68034409 419882008 68034422 38820720 4453203#0 4453203#1 -248783828 -4453202 -329163401 -4453205 -110263759#1 119796455#1 727108696 329163399 437045173#1 437045173#2 437045173#3 437045173#4 437045173#6 329163400#1 82433536 329163402#0 329163402#2 248963104#1 119810553#1 119810553#2 119810553#3 -539782979 -557263984#1 -557263984#0 -119810554#4 -119810554#3 -119810554#1 -119810554#0 -557263987#1 -557263990#2 -557263990#1 -557263990#0 4611369#0 4611369#1 4611369#2 4611369#3 4611369#5 4611369#10 4611369#11 4620317 4620318#0 4611371#0 4611371#1 4611371#2 4611371#3 4611371#4 -531527811#13 -531527811#12 4609558#0 4609558#1 4609558#2 4609558#3 4609558#4 4609558#5 4609558#6 4609558#7 4609558#8 4609558#10 4609571#0 4609571#1 4609571#2 -4609567#5 -4609567#4 -4609567#3 -4609567#2 -4609567#1 -4609567#0                       "></route></vehicle>