<?xml version="1.0" encoding="UTF-8"?>

<!-- generated on Sun Mar 24 14:16:43 2019 by Eclipse SUMO jtrrouter Version 1.0.1
<configuration xmlns:xsi="http://www.w3.org/2001/XMLSchema-instance" xsi:noNamespaceSchemaLocation="http://sumo.dlr.de/xsd/jtrrouterConfiguration.xsd">

    <input>
        <net-file value="grid.net.xml"/>
        <route-files value="grid_slow.rou.xml"/>
        <turn-ratio-files value="grid.turndefs.xml"/>
    </input>

    <output>
        <output-file value="grid_slow_jtrrouter.rou.xml"/>
    </output>

    <processing>
        <no-internal-links value="true"/>
    </processing>

    <time>
        <begin value="0"/>
        <end value="600"/>
    </time>

    <report>
        <verbose value="true"/>
        <ignore-errors value="true"/>
    </report>

</configuration>
-->

<routes xmlns:xsi="http://www.w3.org/2001/XMLSchema-instance" xsi:noNamespaceSchemaLocation="http://sumo.dlr.de/xsd/routes_file.xsd">
    <vType id="vtype0" length="2.50" minGap="2.50" maxSpeed="15.00" color="255,1,0" accel="2.6" decel="4.5" sigma="0.5"/>
    <vehicle id="flow0.0" type="vtype0" depart="1.00" departLane="0" departSpeed="max">
        <route edges="left0A0 A0B0 B0C0 C0C1 C1C2 C2C3 C3B3 B3B2 B2A2 A2left2"/>
    </vehicle>
    <vType id="vtype1" length="2.50" minGap="2.50" maxSpeed="15.00" color="1,255,0" accel="2.6" decel="4.5" sigma="0.5"/>
    <vehicle id="flow1.0" type="vtype1" depart="1.00" departLane="1" departSpeed="max">
        <route edges="left0A0 A0B0 B0B1 B1B2 B2B3 B3C3 C3D3 D3right3"/>
    </vehicle>
    <vehicle id="flow10.0" type="vtype0" depart="1.00" departLane="0" departSpeed="max">
        <route edges="top1B3 B3A3 A3top0"/>
    </vehicle>
    <vehicle id="flow11.0" type="vtype1" depart="1.00" departLane="1" departSpeed="max">
        <route edges="top1B3 B3B2 B2B1 B1A1 A1left1"/>
    </vehicle>
    <vehicle id="flow12.0" type="vtype0" depart="1.00" departLane="0" departSpeed="max">
        <route edges="top2C3 C3C2 C2C1 C1D1 D1right1"/>
    </vehicle>
    <vehicle id="flow13.0" type="vtype1" depart="1.00" departLane="1" departSpeed="max">
        <route edges="top2C3 C3D3 D3right3"/>
    </vehicle>
    <vehicle id="flow14.0" type="vtype0" depart="1.00" departLane="0" departSpeed="max">
        <route edges="top3D3 D3D2 D2C2 C2B2 B2A2 A2left2"/>
    </vehicle>
    <vehicle id="flow15.0" type="vtype1" depart="1.00" departLane="1" departSpeed="max">
        <route edges="top3D3 D3C3 C3top2"/>
    </vehicle>
    <vehicle id="flow16.0" type="vtype0" depart="1.00" departLane="0" departSpeed="max">
        <route edges="right0D0 D0C0 C0C1 C1C2 C2B2 B2A2 A2A3 A3top0"/>
    </vehicle>
    <vehicle id="flow17.0" type="vtype1" depart="1.00" departLane="1" departSpeed="max">
        <route edges="right0D0 D0C0 C0B0 B0A0 A0left0"/>
    </vehicle>
    <vehicle id="flow18.0" type="vtype0" depart="1.00" departLane="0" departSpeed="max">
        <route edges="right1D1 D1C1 C1C2 C2B2 B2B1 B1B0 B0bottom1"/>
    </vehicle>
    <vehicle id="flow19.0" type="vtype1" depart="1.00" departLane="1" departSpeed="max">
        <route edges="right1D1 D1D0 D0right0"/>
    </vehicle>
    <vehicle id="flow2.0" type="vtype0" depart="1.00" departLane="0" departSpeed="max">
        <route edges="left1A1 A1B1 B1B2 B2B3 B3top1"/>
    </vehicle>
    <vehicle id="flow20.0" type="vtype0" depart="1.00" departLane="0" departSpeed="max">
        <route edges="right2D2 D2C2 C2C3 C3B3 B3B2 B2A2 A2A1 A1A0 A0bottom0"/>
    </vehicle>
    <vehicle id="flow21.0" type="vtype1" depart="1.00" departLane="1" departSpeed="max">
        <route edges="right2D2 D2D3 D3C3 C3B3 B3top1"/>
    </vehicle>
    <vehicle id="flow22.0" type="vtype0" depart="1.00" departLane="0" departSpeed="max">
        <route edges="right3D3 D3C3 C3B3 B3A3 A3left3"/>
    </vehicle>
    <vehicle id="flow23.0" type="vtype1" depart="1.00" departLane="1" departSpeed="max">
        <route edges="right3D3 D3C3 C3B3 B3A3 A3A2 A2B2 B2B3 B3C3 C3C2 C2C1 C1C0 C0bottom2"/>
    </vehicle>
    <vehicle id="flow24.0" type="vtype0" depart="1.00" departLane="0" departSpeed="max">
        <route edges="bottom0A0 A0A1 A1B1 B1C1 C1D1 D1D2 D2D3 D3top3"/>
    </vehicle>
    <vehicle id="flow25.0" type="vtype1" depart="1.00" departLane="1" departSpeed="max">
        <route edges="bottom0A0 A0A1 A1A2 A2A3 A3top0"/>
    </vehicle>
    <vehicle id="flow26.0" type="vtype0" depart="1.00" departLane="0" departSpeed="max">
        <route edges="bottom1B0 B0B1 B1C1 C1C2 C2C3 C3top2"/>
    </vehicle>
    <vehicle id="flow27.0" type="vtype1" depart="1.00" departLane="1" departSpeed="max">
        <route edges="bottom1B0 B0B1 B1C1 C1D1 D1right1"/>
    </vehicle>
    <vehicle id="flow28.0" type="vtype0" depart="1.00" departLane="0" departSpeed="max">
        <route edges="bottom2C0 C0C1 C1C2 C2C3 C3top2"/>
    </vehicle>
    <vehicle id="flow29.0" type="vtype1" depart="1.00" departLane="1" departSpeed="max">
        <route edges="bottom2C0 C0B0 B0A0 A0left0"/>
    </vehicle>
    <vehicle id="flow3.0" type="vtype1" depart="1.00" departLane="1" departSpeed="max">
        <route edges="left1A1 A1B1 B1B2 B2B3 B3A3 A3left3"/>
    </vehicle>
    <vehicle id="flow30.0" type="vtype0" depart="1.00" departLane="0" departSpeed="max">
        <route edges="bottom3D0 D0C0 C0bottom2"/>
    </vehicle>
    <vehicle id="flow31.0" type="vtype1" depart="1.00" departLane="1" departSpeed="max">
        <route edges="bottom3D0 D0D1 D1D2 D2C2 C2B2 B2B1 B1C1 C1D1 D1D0 D0right0"/>
    </vehicle>
    <vehicle id="flow4.0" type="vtype0" depart="1.00" departLane="0" departSpeed="max">
        <route edges="left2A2 A2A3 A3top0"/>
    </vehicle>
    <vehicle id="flow5.0" type="vtype1" depart="1.00" departLane="1" departSpeed="max">
        <route edges="left2A2 A2A3 A3top0"/>
    </vehicle>
    <vehicle id="flow6.0" type="vtype0" depart="1.00" departLane="0" departSpeed="max">
        <route edges="left3A3 A3A2 A2A1 A1B1 B1C1 C1D1 D1D0 D0right0"/>
    </vehicle>
    <vehicle id="flow7.0" type="vtype1" depart="1.00" departLane="1" departSpeed="max">
        <route edges="left3A3 A3B3 B3top1"/>
    </vehicle>
    <vehicle id="flow8.0" type="vtype0" depart="1.00" departLane="0" departSpeed="max">
        <route edges="top0A3 A3B3 B3C3 C3C2 C2D2 D2right2"/>
    </vehicle>
    <vehicle id="flow9.0" type="vtype1" depart="1.00" departLane="1" departSpeed="max">
        <route edges="top0A3 A3A2 A2left2"/>
    </vehicle>
    <vehicle id="flow0.1" type="vtype0" depart="3.50" departLane="0" departSpeed="max">
        <route edges="left0A0 A0A1 A1A2 A2left2"/>
    </vehicle>
    <vehicle id="flow1.1" type="vtype1" depart="3.50" departLane="1" departSpeed="max">
        <route edges="left0A0 A0B0 B0C0 C0C1 C1C2 C2D2 D2D1 D1D0 D0right0"/>
    </vehicle>
    <vehicle id="flow10.1" type="vtype0" depart="3.50" departLane="0" departSpeed="max">
        <route edges="top1B3 B3B2 B2A2 A2left2"/>
    </vehicle>
    <vehicle id="flow11.1" type="vtype1" depart="3.50" departLane="1" departSpeed="max">
        <route edges="top1B3 B3C3 C3D3 D3top3"/>
    </vehicle>
    <vehicle id="flow12.1" type="vtype0" depart="3.50" departLane="0" departSpeed="max">
        <route edges="top2C3 C3C2 C2D2 D2right2"/>
    </vehicle>
    <vehicle id="flow13.1" type="vtype1" depart="3.50" departLane="1" departSpeed="max">
        <route edges="top2C3 C3C2 C2D2 D2D3 D3C3 C3B3 B3A3 A3left3"/>
    </vehicle>
    <vehicle id="flow14.1" type="vtype0" depart="3.50" departLane="0" departSpeed="max">
        <route edges="top3D3 D3D2 D2D1 D1D0 D0right0"/>
    </vehicle>
    <vehicle id="flow15.1" type="vtype1" depart="3.50" departLane="1" departSpeed="max">
        <route edges="top3D3 D3C3 C3C2 C2B2 B2B3 B3A3 A3A2 A2A1 A1A0 A0B0 B0bottom1"/>
    </vehicle>
    <vehicle id="flow16.1" type="vtype0" depart="3.50" departLane="0" departSpeed="max">
        <route edges="right0D0 D0C0 C0B0 B0bottom1"/>
    </vehicle>
    <vehicle id="flow17.1" type="vtype1" depart="3.50" departLane="1" departSpeed="max">
        <route edges="right0D0 D0C0 C0B0 B0A0 A0left0"/>
    </vehicle>
    <vehicle id="flow18.1" type="vtype0" depart="3.50" departLane="0" departSpeed="max">
        <route edges="right1D1 D1C1 C1C2 C2C3 C3top2"/>
    </vehicle>
    <vehicle id="flow19.1" type="vtype1" depart="3.50" departLane="1" departSpeed="max">
        <route edges="right1D1 D1C1 C1B1 B1B0 B0A0 A0left0"/>
    </vehicle>
    <vehicle id="flow2.1" type="vtype0" depart="3.50" departLane="0" departSpeed="max">
        <route edges="left1A1 A1B1 B1C1 C1C0 C0D0 D0D1 D1D2 D2C2 C2B2 B2B3 B3top1"/>
    </vehicle>
    <vehicle id="flow20.1" type="vtype0" depart="3.50" departLane="0" departSpeed="max">
        <route edges="right2D2 D2D1 D1C1 C1C2 C2C3 C3B3 B3B2 B2A2 A2left2"/>
    </vehicle>
    <vehicle id="flow21.1" type="vtype1" depart="3.50" departLane="1" departSpeed="max">
        <route edges="right2D2 D2C2 C2C1 C1D1 D1right1"/>
    </vehicle>
    <vehicle id="flow22.1" type="vtype0" depart="3.50" departLane="0" departSpeed="max">
        <route edges="right3D3 D3C3 C3top2"/>
    </vehicle>
    <vehicle id="flow23.1" type="vtype1" depart="3.50" departLane="1" departSpeed="max">
        <route edges="right3D3 D3C3 C3B3 B3A3 A3left3"/>
    </vehicle>
    <vehicle id="flow24.1" type="vtype0" depart="3.50" departLane="0" departSpeed="max">
        <route edges="bottom0A0 A0A1 A1A2 A2left2"/>
    </vehicle>
    <vehicle id="flow25.1" type="vtype1" depart="3.50" departLane="1" departSpeed="max">
        <route edges="bottom0A0 A0B0 B0C0 C0bottom2"/>
    </vehicle>
    <vehicle id="flow26.1" type="vtype0" depart="3.50" departLane="0" departSpeed="max">
        <route edges="bottom1B0 B0B1 B1A1 A1A0 A0bottom0"/>
    </vehicle>
    <vehicle id="flow27.1" type="vtype1" depart="3.50" departLane="1" departSpeed="max">
        <route edges="bottom1B0 B0A0 A0A1 A1A2 A2left2"/>
    </vehicle>
    <vehicle id="flow28.1" type="vtype0" depart="3.50" departLane="0" departSpeed="max">
        <route edges="bottom2C0 C0B0 B0A0 A0bottom0"/>
    </vehicle>
    <vehicle id="flow29.1" type="vtype1" depart="3.50" departLane="1" departSpeed="max">
        <route edges="bottom2C0 C0B0 B0bottom1"/>
    </vehicle>
    <vehicle id="flow3.1" type="vtype1" depart="3.50" departLane="1" departSpeed="max">
        <route edges="left1A1 A1B1 B1C1 C1D1 D1D2 D2D3 D3top3"/>
    </vehicle>
    <vehicle id="flow30.1" type="vtype0" depart="3.50" departLane="0" departSpeed="max">
        <route edges="bottom3D0 D0D1 D1D2 D2D3 D3top3"/>
    </vehicle>
    <vehicle id="flow31.1" type="vtype1" depart="3.50" departLane="1" departSpeed="max">
        <route edges="bottom3D0 D0C0 C0B0 B0A0 A0bottom0"/>
    </vehicle>
    <vehicle id="flow4.1" type="vtype0" depart="3.50" departLane="0" departSpeed="max">
        <route edges="left2A2 A2B2 B2B1 B1C1 C1D1 D1right1"/>
    </vehicle>
    <vehicle id="flow5.1" type="vtype1" depart="3.50" departLane="1" departSpeed="max">
        <route edges="left2A2 A2A1 A1left1"/>
    </vehicle>
    <vehicle id="flow6.1" type="vtype0" depart="3.50" departLane="0" departSpeed="max">
        <route edges="left3A3 A3B3 B3B2 B2B1 B1C1 C1D1 D1right1"/>
    </vehicle>
    <vehicle id="flow7.1" type="vtype1" depart="3.50" departLane="1" departSpeed="max">
        <route edges="left3A3 A3B3 B3B2 B2B1 B1B0 B0C0 C0C1 C1C2 C2D2 D2right2"/>
    </vehicle>
    <vehicle id="flow8.1" type="vtype0" depart="3.50" departLane="0" departSpeed="max">
        <route edges="top0A3 A3B3 B3B2 B2C2 C2D2 D2D3 D3right3"/>
    </vehicle>
    <vehicle id="flow9.1" type="vtype1" depart="3.50" departLane="1" departSpeed="max">
        <route edges="top0A3 A3B3 B3top1"/>
    </vehicle>
    <vehicle id="flow0.2" type="vtype0" depart="6.00" departLane="0" departSpeed="max">
        <route edges="left0A0 A0B0 B0C0 C0D0 D0right0"/>
    </vehicle>
    <vehicle id="flow1.2" type="vtype1" depart="6.00" departLane="1" departSpeed="max">
        <route edges="left0A0 A0B0 B0bottom1"/>
    </vehicle>
    <vehicle id="flow10.2" type="vtype0" depart="6.00" departLane="0" departSpeed="max">
        <route edges="top1B3 B3B2 B2A2 A2A3 A3top0"/>
    </vehicle>
    <vehicle id="flow11.2" type="vtype1" depart="6.00" departLane="1" departSpeed="max">
        <route edges="top1B3 B3C3 C3D3 D3D2 D2right2"/>
    </vehicle>
    <vehicle id="flow12.2" type="vtype0" depart="6.00" departLane="0" departSpeed="max">
        <route edges="top2C3 C3C2 C2B2 B2B3 B3top1"/>
    </vehicle>
    <vehicle id="flow13.2" type="vtype1" depart="6.00" departLane="1" departSpeed="max">
        <route edges="top2C3 C3B3 B3A3 A3A2 A2A1 A1A0 A0bottom0"/>
    </vehicle>
    <vehicle id="flow14.2" type="vtype0" depart="6.00" departLane="0" departSpeed="max">
        <route edges="top3D3 D3D2 D2D1 D1right1"/>
    </vehicle>
    <vehicle id="flow15.2" type="vtype1" depart="6.00" departLane="1" departSpeed="max">
        <route edges="top3D3 D3C3 C3top2"/>
    </vehicle>
    <vehicle id="flow16.2" type="vtype0" depart="6.00" departLane="0" departSpeed="max">
        <route edges="right0D0 D0D1 D1D2 D2D3 D3top3"/>
    </vehicle>
    <vehicle id="flow17.2" type="vtype1" depart="6.00" departLane="1" departSpeed="max">
        <route edges="right0D0 D0C0 C0bottom2"/>
    </vehicle>
    <vehicle id="flow18.2" type="vtype0" depart="6.00" departLane="0" departSpeed="max">
        <route edges="right1D1 D1C1 C1B1 B1B0 B0A0 A0A1 A1A2 A2A3 A3top0"/>
    </vehicle>
    <vehicle id="flow19.2" type="vtype1" depart="6.00" departLane="1" departSpeed="max">
        <route edges="right1D1 D1C1 C1C2 C2D2 D2D1 D1right1"/>
    </vehicle>
    <vehicle id="flow2.2" type="vtype0" depart="6.00" departLane="0" departSpeed="max">
        <route edges="left1A1 A1B1 B1B0 B0bottom1"/>
    </vehicle>
    <vehicle id="flow20.2" type="vtype0" depart="6.00" departLane="0" departSpeed="max">
        <route edges="right2D2 D2C2 C2C3 C3D3 D3right3"/>
    </vehicle>
    <vehicle id="flow21.2" type="vtype1" depart="6.00" departLane="1" departSpeed="max">
        <route edges="right2D2 D2C2 C2B2 B2B3 B3top1"/>
    </vehicle>
    <vehicle id="flow22.2" type="vtype0" depart="6.00" departLane="0" departSpeed="max">
        <route edges="right3D3 D3C3 C3top2"/>
    </vehicle>
    <vehicle id="flow23.2" type="vtype1" depart="6.00" departLane="1" departSpeed="max">
        <route edges="right3D3 D3D2 D2D1 D1D0 D0bottom3"/>
    </vehicle>
    <vehicle id="flow24.2" type="vtype0" depart="6.00" departLane="0" departSpeed="max">
        <route edges="bottom0A0 A0A1 A1B1 B1C1 C1D1 D1D2 D2right2"/>
    </vehicle>
    <vehicle id="flow25.2" type="vtype1" depart="6.00" departLane="1" departSpeed="max">
        <route edges="bottom0A0 A0A1 A1B1 B1B0 B0A0 A0left0"/>
    </vehicle>
    <vehicle id="flow26.2" type="vtype0" depart="6.00" departLane="0" departSpeed="max">
        <route edges="bottom1B0 B0C0 C0C1 C1B1 B1A1 A1left1"/>
    </vehicle>
    <vehicle id="flow27.2" type="vtype1" depart="6.00" departLane="1" departSpeed="max">
        <route edges="bottom1B0 B0C0 C0D0 D0right0"/>
    </vehicle>
    <vehicle id="flow28.2" type="vtype0" depart="6.00" departLane="0" departSpeed="max">
        <route edges="bottom2C0 C0D0 D0right0"/>
    </vehicle>
    <vehicle id="flow29.2" type="vtype1" depart="6.00" departLane="1" departSpeed="max">
        <route edges="bottom2C0 C0B0 B0bottom1"/>
    </vehicle>
    <vehicle id="flow3.2" type="vtype1" depart="6.00" departLane="1" departSpeed="max">
        <route edges="left1A1 A1B1 B1B2 B2B3 B3top1"/>
    </vehicle>
    <vehicle id="flow30.2" type="vtype0" depart="6.00" departLane="0" departSpeed="max">
        <route edges="bottom3D0 D0D1 D1D2 D2C2 C2B2 B2B1 B1C1 C1C0 C0D0 D0bottom3"/>
    </vehicle>
    <vehicle id="flow31.2" type="vtype1" depart="6.00" departLane="1" departSpeed="max">
        <route edges="bottom3D0 D0D1 D1right1"/>
    </vehicle>
    <vehicle id="flow4.2" type="vtype0" depart="6.00" departLane="0" departSpeed="max">
        <route edges="left2A2 A2A1 A1B1 B1B0 B0A0 A0bottom0"/>
    </vehicle>
    <vehicle id="flow5.2" type="vtype1" depart="6.00" departLane="1" departSpeed="max">
        <route edges="left2A2 A2B2 B2B1 B1C1 C1C2 C2B2 B2A2 A2left2"/>
    </vehicle>
    <vehicle id="flow6.2" type="vtype0" depart="6.00" departLane="0" departSpeed="max">
        <route edges="left3A3 A3B3 B3top1"/>
    </vehicle>
    <vehicle id="flow7.2" type="vtype1" depart="6.00" departLane="1" departSpeed="max">
        <route edges="left3A3 A3B3 B3C3 C3D3 D3top3"/>
    </vehicle>
    <vehicle id="flow8.2" type="vtype0" depart="6.00" departLane="0" departSpeed="max">
        <route edges="top0A3 A3B3 B3C3 C3D3 D3top3"/>
    </vehicle>
    <vehicle id="flow9.2" type="vtype1" depart="6.00" departLane="1" departSpeed="max">
        <route edges="top0A3 A3A2 A2left2"/>
    </vehicle>
    <vehicle id="flow0.3" type="vtype0" depart="8.50" departLane="0" departSpeed="max">
        <route edges="left0A0 A0A1 A1A2 A2A3 A3top0"/>
    </vehicle>
    <vehicle id="flow1.3" type="vtype1" depart="8.50" departLane="1" departSpeed="max">
        <route edges="left0A0 A0B0 B0bottom1"/>
    </vehicle>
    <vehicle id="flow10.3" type="vtype0" depart="8.50" departLane="0" departSpeed="max">
        <route edges="top1B3 B3A3 A3A2 A2A1 A1B1 B1B2 B2B3 B3C3 C3top2"/>
    </vehicle>
    <vehicle id="flow11.3" type="vtype1" depart="8.50" departLane="1" departSpeed="max">
        <route edges="top1B3 B3B2 B2B1 B1B0 B0bottom1"/>
    </vehicle>
    <vehicle id="flow12.3" type="vtype0" depart="8.50" departLane="0" departSpeed="max">
        <route edges="top2C3 C3D3 D3right3"/>
    </vehicle>
    <vehicle id="flow13.3" type="vtype1" depart="8.50" departLane="1" departSpeed="max">
        <route edges="top2C3 C3C2 C2C1 C1B1 B1A1 A1left1"/>
    </vehicle>
    <vehicle id="flow14.3" type="vtype0" depart="8.50" departLane="0" departSpeed="max">
        <route edges="top3D3 D3D2 D2D1 D1D0 D0right0"/>
    </vehicle>
    <vehicle id="flow15.3" type="vtype1" depart="8.50" departLane="1" departSpeed="max">
        <route edges="top3D3 D3C3 C3B3 B3B2 B2B1 B1B0 B0bottom1"/>
    </vehicle>
    <vehicle id="flow16.3" type="vtype0" depart="8.50" departLane="0" departSpeed="max">
        <route edges="right0D0 D0C0 C0C1 C1C2 C2C3 C3B3 B3top1"/>
    </vehicle>
    <vehicle id="flow17.3" type="vtype1" depart="8.50" departLane="1" departSpeed="max">
        <route edges="right0D0 D0D1 D1C1 C1B1 B1B0 B0bottom1"/>
    </vehicle>
    <vehicle id="flow18.3" type="vtype0" depart="8.50" departLane="0" departSpeed="max">
        <route edges="right1D1 D1D2 D2right2"/>
    </vehicle>
    <vehicle id="flow19.3" type="vtype1" depart="8.50" departLane="1" departSpeed="max">
        <route edges="right1D1 D1D0 D0right0"/>
    </vehicle>
    <vehicle id="flow2.3" type="vtype0" depart="8.50" departLane="0" departSpeed="max">
        <route edges="left1A1 A1A0 A0bottom0"/>
    </vehicle>
    <vehicle id="flow20.3" type="vtype0" depart="8.50" departLane="0" departSpeed="max">
        <route edges="right2D2 D2D3 D3top3"/>
    </vehicle>
    <vehicle id="flow21.3" type="vtype1" depart="8.50" departLane="1" departSpeed="max">
        <route edges="right2D2 D2D3 D3top3"/>
    </vehicle>
    <vehicle id="flow22.3" type="vtype0" depart="8.50" departLane="0" departSpeed="max">
        <route edges="right3D3 D3C3 C3top2"/>
    </vehicle>
    <vehicle id="flow23.3" type="vtype1" depart="8.50" departLane="1" departSpeed="max">
        <route edges="right3D3 D3C3 C3C2 C2B2 B2B3 B3A3 A3top0"/>
    </vehicle>
    <vehicle id="flow24.3" type="vtype0" depart="8.50" departLane="0" departSpeed="max">
        <route edges="bottom0A0 A0B0 B0bottom1"/>
    </vehicle>
    <vehicle id="flow25.3" type="vtype1" depart="8.50" departLane="1" departSpeed="max">
        <route edges="bottom0A0 A0A1 A1B1 B1B2 B2B3 B3top1"/>
    </vehicle>
    <vehicle id="flow26.3" type="vtype0" depart="8.50" departLane="0" departSpeed="max">
        <route edges="bottom1B0 B0A0 A0A1 A1A2 A2A3 A3top0"/>
    </vehicle>
    <vehicle id="flow27.3" type="vtype1" depart="8.50" departLane="1" departSpeed="max">
        <route edges="bottom1B0 B0C0 C0bottom2"/>
    </vehicle>
    <vehicle id="flow28.3" type="vtype0" depart="8.50" departLane="0" departSpeed="max">
        <route edges="bottom2C0 C0C1 C1C2 C2C3 C3B3 B3A3 A3left3"/>
    </vehicle>
    <vehicle id="flow29.3" type="vtype1" depart="8.50" departLane="1" departSpeed="max">
        <route edges="bottom2C0 C0B0 B0A0 A0left0"/>
    </vehicle>
    <vehicle id="flow3.3" type="vtype1" depart="8.50" departLane="1" departSpeed="max">
        <route edges="left1A1 A1A0 A0bottom0"/>
    </vehicle>
    <vehicle id="flow30.3" type="vtype0" depart="8.50" departLane="0" departSpeed="max">
        <route edges="bottom3D0 D0D1 D1right1"/>
    </vehicle>
    <vehicle id="flow31.3" type="vtype1" depart="8.50" departLane="1" departSpeed="max">
        <route edges="bottom3D0 D0D1 D1C1 C1B1 B1B0 B0C0 C0C1 C1D1 D1right1"/>
    </vehicle>
    <vehicle id="flow4.3" type="vtype0" depart="8.50" departLane="0" departSpeed="max">
        <route edges="left2A2 A2A1 A1A0 A0left0"/>
    </vehicle>
    <vehicle id="flow5.3" type="vtype1" depart="8.50" departLane="1" departSpeed="max">
        <route edges="left2A2 A2A1 A1B1 B1B0 B0C0 C0bottom2"/>
    </vehicle>
    <vehicle id="flow6.3" type="vtype0" depart="8.50" departLane="0" departSpeed="max">
        <route edges="left3A3 A3A2 A2B2 B2C2 C2D2 D2D1 D1D0 D0bottom3"/>
    </vehicle>
    <vehicle id="flow7.3" type="vtype1" depart="8.50" departLane="1" departSpeed="max">
        <route edges="left3A3 A3B3 B3top1"/>
    </vehicle>
    <vehicle id="flow8.3" type="vtype0" depart="8.50" departLane="0" departSpeed="max">
        <route edges="top0A3 A3A2 A2A1 A1B1 B1B2 B2A2 A2left2"/>
    </vehicle>
    <vehicle id="flow9.3" type="vtype1" depart="8.50" departLane="1" departSpeed="max">
        <route edges="top0A3 A3A2 A2B2 B2B1 B1B0 B0C0 C0bottom2"/>
    </vehicle>
    <vehicle id="flow0.4" type="vtype0" depart="11.00" departLane="0" departSpeed="max">
        <route edges="left0A0 A0B0 B0C0 C0bottom2"/>
    </vehicle>
    <vehicle id="flow1.4" type="vtype1" depart="11.00" departLane="1" departSpeed="max">
        <route edges="left0A0 A0B0 B0bottom1"/>
    </vehicle>
    <vehicle id="flow10.4" type="vtype0" depart="11.00" departLane="0" departSpeed="max">
        <route edges="top1B3 B3B2 B2B1 B1B0 B0C0 C0D0 D0D1 D1right1"/>
    </vehicle>
    <vehicle id="flow11.4" type="vtype1" depart="11.00" departLane="1" departSpeed="max">
        <route edges="top1B3 B3C3 C3D3 D3right3"/>
    </vehicle>
    <vehicle id="flow12.4" type="vtype0" depart="11.00" departLane="0" departSpeed="max">
        <route edges="top2C3 C3D3 D3right3"/>
    </vehicle>
    <vehicle id="flow13.4" type="vtype1" depart="11.00" departLane="1" departSpeed="max">
        <route edges="top2C3 C3B3 B3B2 B2B1 B1C1 C1D1 D1D2 D2D3 D3right3"/>
    </vehicle>
    <vehicle id="flow14.4" type="vtype0" depart="11.00" departLane="0" departSpeed="max">
        <route edges="top3D3 D3D2 D2D1 D1C1 C1B1 B1B2 B2C2 C2D2 D2right2"/>
    </vehicle>
    <vehicle id="flow15.4" type="vtype1" depart="11.00" departLane="1" departSpeed="max">
        <route edges="top3D3 D3D2 D2right2"/>
    </vehicle>
    <vehicle id="flow16.4" type="vtype0" depart="11.00" departLane="0" departSpeed="max">
        <route edges="right0D0 D0D1 D1right1"/>
    </vehicle>
    <vehicle id="flow17.4" type="vtype1" depart="11.00" departLane="1" departSpeed="max">
        <route edges="right0D0 D0C0 C0B0 B0bottom1"/>
    </vehicle>
    <vehicle id="flow18.4" type="vtype0" depart="11.00" departLane="0" departSpeed="max">
        <route edges="right1D1 D1C1 C1C2 C2B2 B2B3 B3A3 A3A2 A2A1 A1left1"/>
    </vehicle>
    <vehicle id="flow19.4" type="vtype1" depart="11.00" departLane="1" departSpeed="max">
        <route edges="right1D1 D1C1 C1B1 B1B0 B0C0 C0C1 C1D1 D1D2 D2D3 D3right3"/>
    </vehicle>
    <vehicle id="flow2.4" type="vtype0" depart="11.00" departLane="0" departSpeed="max">
        <route edges="left1A1 A1B1 B1C1 C1D1 D1D0 D0bottom3"/>
    </vehicle>
    <vehicle id="flow20.4" type="vtype0" depart="11.00" departLane="0" departSpeed="max">
        <route edges="right2D2 D2C2 C2B2 B2B3 B3top1"/>
    </vehicle>
    <vehicle id="flow21.4" type="vtype1" depart="11.00" departLane="1" departSpeed="max">
        <route edges="right2D2 D2C2 C2C3 C3top2"/>
    </vehicle>
    <vehicle id="flow22.4" type="vtype0" depart="11.00" departLane="0" departSpeed="max">
        <route edges="right3D3 D3D2 D2D1 D1D0 D0right0"/>
    </vehicle>
    <vehicle id="flow23.4" type="vtype1" depart="11.00" departLane="1" departSpeed="max">
        <route edges="right3D3 D3D2 D2C2 C2C3 C3D3 D3right3"/>
    </vehicle>
    <vehicle id="flow24.4" type="vtype0" depart="11.00" departLane="0" departSpeed="max">
        <route edges="bottom0A0 A0B0 B0C0 C0D0 D0right0"/>
    </vehicle>
    <vehicle id="flow25.4" type="vtype1" depart="11.00" departLane="1" departSpeed="max">
        <route edges="bottom0A0 A0B0 B0B1 B1B2 B2B3 B3A3 A3top0"/>
    </vehicle>
    <vehicle id="flow26.4" type="vtype0" depart="11.00" departLane="0" departSpeed="max">
        <route edges="bottom1B0 B0B1 B1B2 B2B3 B3top1"/>
    </vehicle>
    <vehicle id="flow27.4" type="vtype1" depart="11.00" departLane="1" departSpeed="max">
        <route edges="bottom1B0 B0B1 B1A1 A1A0 A0left0"/>
    </vehicle>
    <vehicle id="flow28.4" type="vtype0" depart="11.00" departLane="0" departSpeed="max">
        <route edges="bottom2C0 C0C1 C1C2 C2D2 D2right2"/>
    </vehicle>
    <vehicle id="flow29.4" type="vtype1" depart="11.00" departLane="1" departSpeed="max">
        <route edges="bottom2C0 C0B0 B0A0 A0bottom0"/>
    </vehicle>
    <vehicle id="flow3.4" type="vtype1" depart="11.00" departLane="1" departSpeed="max">
        <route edges="left1A1 A1A2 A2A3 A3top0"/>
    </vehicle>
    <vehicle id="flow30.4" type="vtype0" depart="11.00" departLane="0" departSpeed="max">
        <route edges="bottom3D0 D0D1 D1D2 D2right2"/>
    </vehicle>
    <vehicle id="flow31.4" type="vtype1" depart="11.00" departLane="1" departSpeed="max">
        <route edges="bottom3D0 D0C0 C0bottom2"/>
    </vehicle>
    <vehicle id="flow4.4" type="vtype0" depart="11.00" departLane="0" departSpeed="max">
        <route edges="left2A2 A2B2 B2C2 C2C3 C3top2"/>
    </vehicle>
    <vehicle id="flow5.4" type="vtype1" depart="11.00" departLane="1" departSpeed="max">
        <route edges="left2A2 A2B2 B2B1 B1C1 C1C2 C2D2 D2D3 D3C3 C3C2 C2B2 B2A2 A2A3 A3B3 B3B2 B2C2 C2C1 C1C0 C0D0 D0right0"/>
    </vehicle>
    <vehicle id="flow6.4" type="vtype0" depart="11.00" departLane="0" departSpeed="max">
        <route edges="left3A3 A3A2 A2left2"/>
    </vehicle>
    <vehicle id="flow7.4" type="vtype1" depart="11.00" departLane="1" departSpeed="max">
        <route edges="left3A3 A3B3 B3top1"/>
    </vehicle>
    <vehicle id="flow8.4" type="vtype0" depart="11.00" departLane="0" departSpeed="max">
        <route edges="top0A3 A3A2 A2B2 B2C2 C2C1 C1C0 C0bottom2"/>
    </vehicle>
    <vehicle id="flow9.4" type="vtype1" depart="11.00" departLane="1" departSpeed="max">
        <route edges="top0A3 A3A2 A2A1 A1left1"/>
    </vehicle>
    <vehicle id="flow0.5" type="vtype0" depart="13.50" departLane="0" departSpeed="max">
        <route edges="left0A0 A0B0 B0C0 C0D0 D0right0"/>
    </vehicle>
    <vehicle id="flow1.5" type="vtype1" depart="13.50" departLane="1" departSpeed="max">
        <route edges="left0A0 A0A1 A1A2 A2left2"/>
    </vehicle>
    <vehicle id="flow10.5" type="vtype0" depart="13.50" departLane="0" departSpeed="max">
        <route edges="top1B3 B3B2 B2B1 B1B0 B0C0 C0C1 C1D1 D1D2 D2right2"/>
    </vehicle>
    <vehicle id="flow11.5" type="vtype1" depart="13.50" departLane="1" departSpeed="max">
        <route edges="top1B3 B3A3 A3left3"/>
    </vehicle>
    <vehicle id="flow12.5" type="vtype0" depart="13.50" departLane="0" departSpeed="max">
        <route edges="top2C3 C3C2 C2D2 D2right2"/>
    </vehicle>
    <vehicle id="flow13.5" type="vtype1" depart="13.50" departLane="1" departSpeed="max">
        <route edges="top2C3 C3C2 C2D2 D2D1 D1D0 D0right0"/>
    </vehicle>
    <vehicle id="flow14.5" type="vtype0" depart="13.50" departLane="0" departSpeed="max">
        <route edges="top3D3 D3C3 C3C2 C2D2 D2D1 D1C1 C1C2 C2C3 C3D3 D3right3"/>
    </vehicle>
    <vehicle id="flow15.5" type="vtype1" depart="13.50" departLane="1" departSpeed="max">
        <route edges="top3D3 D3C3 C3B3 B3A3 A3left3"/>
    </vehicle>
    <vehicle id="flow16.5" type="vtype0" depart="13.50" departLane="0" departSpeed="max">
        <route edges="right0D0 D0C0 C0C1 C1B1 B1B2 B2C2 C2C3 C3D3 D3right3"/>
    </vehicle>
    <vehicle id="flow17.5" type="vtype1" depart="13.50" departLane="1" departSpeed="max">
        <route edges="right0D0 D0C0 C0B0 B0A0 A0A1 A1A2 A2A3 A3top0"/>
    </vehicle>
    <vehicle id="flow18.5" type="vtype0" depart="13.50" departLane="0" departSpeed="max">
        <route edges="right1D1 D1D2 D2D3 D3C3 C3top2"/>
    </vehicle>
    <vehicle id="flow19.5" type="vtype1" depart="13.50" departLane="1" departSpeed="max">
        <route edges="right1D1 D1D2 D2right2"/>
    </vehicle>
    <vehicle id="flow2.5" type="vtype0" depart="13.50" departLane="0" departSpeed="max">
        <route edges="left1A1 A1A2 A2B2 B2C2 C2C3 C3D3 D3top3"/>
    </vehicle>
    <vehicle id="flow20.5" type="vtype0" depart="13.50" departLane="0" departSpeed="max">
        <route edges="right2D2 D2C2 C2C3 C3B3 B3A3 A3left3"/>
    </vehicle>
    <vehicle id="flow21.5" type="vtype1" depart="13.50" departLane="1" departSpeed="max">
        <route edges="right2D2 D2D1 D1right1"/>
    </vehicle>
    <vehicle id="flow22.5" type="vtype0" depart="13.50" departLane="0" departSpeed="max">
        <route edges="right3D3 D3C3 C3C2 C2C1 C1C0 C0bottom2"/>
    </vehicle>
    <vehicle id="flow23.5" type="vtype1" depart="13.50" departLane="1" departSpeed="max">
        <route edges="right3D3 D3C3 C3top2"/>