<?xml version="1.0" encoding="UTF-8"?>

<!-- generated on Sun 24 Mar 2019 02:10:17 PM UTC by Eclipse SUMO netedit Version 1.0.1
<configuration xmlns:xsi="http://www.w3.org/2001/XMLSchema-instance" xsi:noNamespaceSchemaLocation="http://sumo.dlr.de/xsd/netconvertConfiguration.xsd">

    <input>
        <sumo-net-file value="grid.net.xml"/>
    </input>

    <output>
        <output-file value="grid.net.xml"/>
    </output>

    <processing>
        <offset.disable-normalization value="true"/>
        <lefthand value="false"/>
    </processing>

    <junctions>
        <no-turnarounds value="true"/>
        <junctions.corner-detail value="5"/>
        <junctions.limit-turn-speed value="5.5"/>
        <rectangular-lane-cut value="false"/>
    </junctions>

    <pedestrian>
        <walkingareas value="false"/>
    </pedestrian>

</configuration>
-->

<net version="1.0" junctionCornerDetail="5" limitTurnSpeed="5.50" xmlns:xsi="http://www.w3.org/2001/XMLSchema-instance" xsi:noNamespaceSchemaLocation="http://sumo.dlr.de/xsd/net_file.xsd">

    <location netOffset="0.00,0.00" convBoundary="0.00,0.00,800.00,1349.00" origBoundary="0.00,0.00,800.00,1349.00" projParameter="!"/>

    <edge id=":A0_0" function="internal">
        <lane id=":A0_0_0" index="0" speed="6.62" length="9.27" width="3.50" shape="19.75,36.00 19.39,33.48 18.31,31.69 16.52,30.61 14.00,30.25"/>
    </edge>
    <edge id=":A0_1" function="internal">
        <lane id=":A0_1_0" index="0" speed="13.89" length="22.00" width="3.50" shape="19.75,36.00 19.75,14.00"/>
        <lane id=":A0_1_1" index="1" speed="13.89" length="22.00" width="3.50" shape="23.25,36.00 23.25,14.00"/>
    </edge>
    <edge id=":A0_3" function="internal">
        <lane id=":A0_3_0" index="0" speed="9.55" length="7.49" width="3.50" shape="23.25,36.00 24.05,30.42 25.00,28.83"/>
    </edge>
    <edge id=":A0_14" function="internal">
        <lane id=":A0_14_0" index="0" speed="9.55" length="13.08" width="3.50" shape="25.00,28.83 26.44,26.44 30.42,24.05 36.00,23.25"/>
    </edge>
    <edge id=":A0_4" function="internal">
        <lane id=":A0_4_0" index="0" speed="6.62" length="9.27" width="3.50" shape="36.00,30.25 33.48,30.61 31.69,31.69 30.61,33.48 30.25,36.00"/>
    </edge>
    <edge id=":A0_5" function="internal">
        <lane id=":A0_5_0" index="0" speed="13.89" length="22.00" width="3.50" shape="36.00,30.25 14.00,30.25"/>
        <lane id=":A0_5_1" index="1" speed="13.89" length="22.00" width="3.50" shape="36.00,26.75 14.00,26.75"/>
    </edge>
    <edge id=":A0_7" function="internal">
        <lane id=":A0_7_0" index="0" speed="9.55" length="20.56" width="3.50" shape="36.00,26.75 30.42,25.95 26.44,23.56 24.05,19.58 23.25,14.00"/>
    </edge>
    <edge id=":A0_8" function="internal">
        <lane id=":A0_8_0" index="0" speed="6.62" length="9.27" width="3.50" shape="30.25,14.00 30.61,16.52 31.69,18.31 33.48,19.39 36.00,19.75"/>
    </edge>
    <edge id=":A0_9" function="internal">
        <lane id=":A0_9_0" index="0" speed="13.89" length="22.00" width="3.50" shape="30.25,14.00 30.25,36.00"/>
        <lane id=":A0_9_1" index="1" speed="13.89" length="22.00" width="3.50" shape="26.75,14.00 26.75,36.00"/>
    </edge>
    <edge id=":A0_11" function="internal">
        <lane id=":A0_11_0" index="0" speed="13.89" length="22.00" width="3.50" shape="14.00,19.75 36.00,19.75"/>
        <lane id=":A0_11_1" index="1" speed="13.89" length="22.00" width="3.50" shape="14.00,23.25 36.00,23.25"/>
    </edge>
    <edge id=":A0_13" function="internal">
        <lane id=":A0_13_0" index="0" speed="9.55" length="20.56" width="3.50" shape="14.00,23.25 19.58,24.05 23.56,26.44 25.95,30.42 26.75,36.00"/>
    </edge>
    <edge id=":A1_0" function="internal">
        <lane id=":A1_0_0" index="0" speed="6.62" length="9.27" width="3.50" shape="19.75,469.00 19.39,466.48 18.31,464.69 16.52,463.61 14.00,463.25"/>
    </edge>
    <edge id=":A1_1" function="internal">
        <lane id=":A1_1_0" index="0" speed="13.89" length="22.00" width="3.50" shape="19.75,469.00 19.75,447.00"/>
        <lane id=":A1_1_1" index="1" speed="13.89" length="22.00" width="3.50" shape="23.25,469.00 23.25,447.00"/>
    </edge>
    <edge id=":A1_3" function="internal">
        <lane id=":A1_3_0" index="0" speed="9.55" length="7.49" width="3.50" shape="23.25,469.00 24.05,463.42 25.00,461.83"/>
    </edge>
    <edge id=":A1_16" function="internal">
        <lane id=":A1_16_0" index="0" speed="9.55" length="13.08" width="3.50" shape="25.00,461.83 26.44,459.44 30.42,457.05 36.00,456.25"/>
    </edge>
    <edge id=":A1_4" function="internal">
        <lane id=":A1_4_0" index="0" speed="6.62" length="9.27" width="3.50" shape="36.00,463.25 33.48,463.61 31.69,464.69 30.61,466.48 30.25,469.00"/>
    </edge>
    <edge id=":A1_5" function="internal">
        <lane id=":A1_5_0" index="0" speed="13.89" length="22.00" width="3.50" shape="36.00,463.25 14.00,463.25"/>
        <lane id=":A1_5_1" index="1" speed="13.89" length="22.00" width="3.50" shape="36.00,459.75 14.00,459.75"/>
    </edge>
    <edge id=":A1_7" function="internal">
        <lane id=":A1_7_0" index="0" speed="9.55" length="20.56" width="3.50" shape="36.00,459.75 30.42,458.95 26.44,456.56 24.05,452.58 23.25,447.00"/>
    </edge>
    <edge id=":A1_8" function="internal">
        <lane id=":A1_8_0" index="0" speed="6.62" length="9.27" width="3.50" shape="30.25,447.00 30.61,449.52 31.69,451.31 33.48,452.39 36.00,452.75"/>
    </edge>
    <edge id=":A1_9" function="internal">
        <lane id=":A1_9_0" index="0" speed="13.89" length="22.00" width="3.50" shape="30.25,447.00 30.25,469.00"/>
        <lane id=":A1_9_1" index="1" speed="13.89" length="22.00" width="3.50" shape="26.75,447.00 26.75,469.00"/>
    </edge>
    <edge id=":A1_11" function="internal">
        <lane id=":A1_11_0" index="0" speed="9.55" length="7.49" width="3.50" shape="26.75,447.00 25.95,452.58 25.00,454.17"/>
    </edge>
    <edge id=":A1_17" function="internal">
        <lane id=":A1_17_0" index="0" speed="9.55" length="13.08" width="3.50" shape="25.00,454.17 23.56,456.56 19.58,458.95 14.00,459.75"/>
    </edge>
    <edge id=":A1_12" function="internal">
        <lane id=":A1_12_0" index="0" speed="6.62" length="9.27" width="3.50" shape="14.00,452.75 16.52,452.39 18.31,451.31 19.39,449.52 19.75,447.00"/>
    </edge>
    <edge id=":A1_13" function="internal">
        <lane id=":A1_13_0" index="0" speed="13.89" length="22.00" width="3.50" shape="14.00,452.75 36.00,452.75"/>
        <lane id=":A1_13_1" index="1" speed="13.89" length="22.00" width="3.50" shape="14.00,456.25 36.00,456.25"/>
    </edge>
    <edge id=":A1_15" function="internal">
        <lane id=":A1_15_0" index="0" speed="9.55" length="20.56" width="3.50" shape="14.00,456.25 19.58,457.05 23.56,459.44 25.95,463.42 26.75,469.00"/>
    </edge>
    <edge id=":A2_0" function="internal">
        <lane id=":A2_0_0" index="0" speed="6.62" length="9.27" width="3.50" shape="19.75,902.00 19.39,899.48 18.31,897.69 16.52,896.61 14.00,896.25"/>
    </edge>
    <edge id=":A2_1" function="internal">
        <lane id=":A2_1_0" index="0" speed="13.89" length="22.00" width="3.50" shape="19.75,902.00 19.75,880.00"/>
        <lane id=":A2_1_1" index="1" speed="13.89" length="22.00" width="3.50" shape="23.25,902.00 23.25,880.00"/>
    </edge>
    <edge id=":A2_3" function="internal">
        <lane id=":A2_3_0" index="0" speed="9.55" length="7.49" width="3.50" shape="23.25,902.00 24.05,896.42 25.00,894.83"/>
    </edge>
    <edge id=":A2_16" function="internal">
        <lane id=":A2_16_0" index="0" speed="9.55" length="13.08" width="3.50" shape="25.00,894.83 26.44,892.44 30.42,890.05 36.00,889.25"/>
    </edge>
    <edge id=":A2_4" function="internal">
        <lane id=":A2_4_0" index="0" speed="6.62" length="9.27" width="3.50" shape="36.00,896.25 33.48,896.61 31.69,897.69 30.61,899.48 30.25,902.00"/>
    </edge>
    <edge id=":A2_5" function="internal">
        <lane id=":A2_5_0" index="0" speed="13.89" length="22.00" width="3.50" shape="36.00,896.25 14.00,896.25"/>
        <lane id=":A2_5_1" index="1" speed="13.89" length="22.00" width="3.50" shape="36.00,892.75 14.00,892.75"/>
    </edge>
    <edge id=":A2_7" function="internal">
        <lane id=":A2_7_0" index="0" speed="9.55" length="20.56" width="3.50" shape="36.00,892.75 30.42,891.95 26.44,889.56 24.05,885.58 23.25,880.00"/>
    </edge>
    <edge id=":A2_8" function="internal">
        <lane id=":A2_8_0" index="0" speed="6.62" length="9.27" width="3.50" shape="30.25,880.00 30.61,882.52 31.69,884.31 33.48,885.39 36.00,885.75"/>
    </edge>
    <edge id=":A2_9" function="internal">
        <lane id=":A2_9_0" index="0" speed="13.89" length="22.00" width="3.50" shape="30.25,880.00 30.25,902.00"/>
        <lane id=":A2_9_1" index="1" speed="13.89" length="22.00" width="3.50" shape="26.75,880.00 26.75,902.00"/>
    </edge>
    <edge id=":A2_11" function="internal">
        <lane id=":A2_11_0" index="0" speed="9.55" length="7.49" width="3.50" shape="26.75,880.00 25.95,885.58 25.00,887.17"/>
    </edge>
    <edge id=":A2_17" function="internal">
        <lane id=":A2_17_0" index="0" speed="9.55" length="13.08" width="3.50" shape="25.00,887.17 23.56,889.56 19.58,891.95 14.00,892.75"/>
    </edge>
    <edge id=":A2_12" function="internal">
        <lane id=":A2_12_0" index="0" speed="6.62" length="9.27" width="3.50" shape="14.00,885.75 16.52,885.39 18.31,884.31 19.39,882.52 19.75,880.00"/>
    </edge>
    <edge id=":A2_13" function="internal">
        <lane id=":A2_13_0" index="0" speed="13.89" length="22.00" width="3.50" shape="14.00,885.75 36.00,885.75"/>
        <lane id=":A2_13_1" index="1" speed="13.89" length="22.00" width="3.50" shape="14.00,889.25 36.00,889.25"/>
    </edge>
    <edge id=":A2_15" function="internal">
        <lane id=":A2_15_0" index="0" speed="9.55" length="20.56" width="3.50" shape="14.00,889.25 19.58,890.05 23.56,892.44 25.95,896.42 26.75,902.00"/>
    </edge>
    <edge id=":A3_0" function="internal">
        <lane id=":A3_0_0" index="0" speed="13.89" length="22.00" width="3.50" shape="19.75,1335.00 19.75,1313.00"/>
        <lane id=":A3_0_1" index="1" speed="13.89" length="22.00" width="3.50" shape="23.25,1335.00 23.25,1313.00"/>
    </edge>
    <edge id=":A3_2" function="internal">
        <lane id=":A3_2_0" index="0" speed="9.55" length="7.49" width="3.50" shape="23.25,1335.00 24.05,1329.42 25.00,1327.83"/>
    </edge>
    <edge id=":A3_14" function="internal">
        <lane id=":A3_14_0" index="0" speed="9.55" length="13.08" width="3.50" shape="25.00,1327.83 26.44,1325.44 30.42,1323.05 36.00,1322.25"/>
    </edge>
    <edge id=":A3_3" function="internal">
        <lane id=":A3_3_0" index="0" speed="6.62" length="9.27" width="3.50" shape="36.00,1329.25 33.48,1329.61 31.69,1330.69 30.61,1332.48 30.25,1335.00"/>
    </edge>
    <edge id=":A3_4" function="internal">
        <lane id=":A3_4_0" index="0" speed="13.89" length="22.00" width="3.50" shape="36.00,1329.25 14.00,1329.25"/>
        <lane id=":A3_4_1" index="1" speed="13.89" length="22.00" width="3.50" shape="36.00,1325.75 14.00,1325.75"/>
    </edge>
    <edge id=":A3_6" function="internal">
        <lane id=":A3_6_0" index="0" speed="9.55" length="20.56" width="3.50" shape="36.00,1325.75 30.42,1324.95 26.44,1322.56 24.05,1318.58 23.25,1313.00"/>
    </edge>
    <edge id=":A3_7" function="internal">
        <lane id=":A3_7_0" index="0" speed="6.62" length="9.27" width="3.50" shape="30.25,1313.00 30.61,1315.52 31.69,1317.31 33.48,1318.39 36.00,1318.75"/>
    </edge>
    <edge id=":A3_8" function="internal">
        <lane id=":A3_8_0" index="0" speed="13.89" length="22.00" width="3.50" shape="30.25,1313.00 30.25,1335.00"/>
        <lane id=":A3_8_1" index="1" speed="13.89" length="22.00" width="3.50" shape="26.75,1313.00 26.75,1335.00"/>
    </edge>
    <edge id=":A3_10" function="internal">
        <lane id=":A3_10_0" index="0" speed="9.55" length="7.49" width="3.50" shape="26.75,1313.00 25.95,1318.58 25.00,1320.17"/>
    </edge>
    <edge id=":A3_15" function="internal">
        <lane id=":A3_15_0" index="0" speed="9.55" length="13.08" width="3.50" shape="25.00,1320.17 23.56,1322.56 19.58,1324.95 14.00,1325.75"/>
    </edge>
    <edge id=":A3_11" function="internal">
        <lane id=":A3_11_0" index="0" speed="6.62" length="9.27" width="3.50" shape="14.00,1318.75 16.52,1318.39 18.31,1317.31 19.39,1315.52 19.75,1313.00"/>
    </edge>
    <edge id=":A3_12" function="internal">
        <lane id=":A3_12_0" index="0" speed="13.89" length="22.00" width="3.50" shape="14.00,1318.75 36.00,1318.75"/>
        <lane id=":A3_12_1" index="1" speed="13.89" length="22.00" width="3.50" shape="14.00,1322.25 36.00,1322.25"/>
    </edge>
    <edge id=":B0_0" function="internal">
        <lane id=":B0_0_0" index="0" speed="6.62" length="9.27" width="3.50" shape="269.75,36.00 269.39,33.48 268.31,31.69 266.52,30.61 264.00,30.25"/>
    </edge>
    <edge id=":B0_1" function="internal">
        <lane id=":B0_1_0" index="0" speed="13.89" length="22.00" width="3.50" shape="269.75,36.00 269.75,14.00"/>
        <lane id=":B0_1_1" index="1" speed="13.89" length="22.00" width="3.50" shape="273.25,36.00 273.25,14.00"/>
    </edge>
    <edge id=":B0_3" function="internal">
        <lane id=":B0_3_0" index="0" speed="9.55" length="7.49" width="3.50" shape="273.25,36.00 274.05,30.42 275.00,28.83"/>
    </edge>
    <edge id=":B0_16" function="internal">
        <lane id=":B0_16_0" index="0" speed="9.55" length="13.08" width="3.50" shape="275.00,28.83 276.44,26.44 280.42,24.05 286.00,23.25"/>
    </edge>
    <edge id=":B0_4" function="internal">
        <lane id=":B0_4_0" index="0" speed="6.62" length="9.27" width="3.50" shape="286.00,30.25 283.48,30.61 281.69,31.69 280.61,33.48 280.25,36.00"/>
    </edge>
    <edge id=":B0_5" function="internal">
        <lane id=":B0_5_0" index="0" speed="13.89" length="22.00" width="3.50" shape="286.00,30.25 264.00,30.25"/>
        <lane id=":B0_5_1" index="1" speed="13.89" length="22.00" width="3.50" shape="286.00,26.75 264.00,26.75"/>
    </edge>
    <edge id=":B0_7" function="internal">
        <lane id=":B0_7_0" index="0" speed="9.55" length="20.56" width="3.50" shape="286.00,26.75 280.42,25.95 276.44,23.56 274.05,19.58 273.25,14.00"/>
    </edge>
    <edge id=":B0_8" function="internal">
        <lane id=":B0_8_0" index="0" speed="6.62" length="9.27" width="3.50" shape="280.25,14.00 280.61,16.52 281.69,18.31 283.48,19.39 286.00,19.75"/>
    </edge>
    <edge id=":B0_9" function="internal">
        <lane id=":B0_9_0" index="0" speed="13.89" length="22.00" width="3.50" shape="280.25,14.00 280.25,36.00"/>
        <lane id=":B0_9_1" index="1" speed="13.89" length="22.00" width="3.50" shape="276.75,14.00 276.75,36.00"/>
    </edge>
    <edge id=":B0_11" function="internal">
        <lane id=":B0_11_0" index="0" speed="9.55" length="7.49" width="3.50" shape="276.75,14.00 275.95,19.58 275.00,21.17"/>
    </edge>
    <edge id=":B0_17" function="internal">
        <lane id=":B0_17_0" index="0" speed="9.55" length="13.08" width="3.50" shape="275.00,21.17 273.56,23.56 269.58,25.95 264.00,26.75"/>
    </edge>
    <edge id=":B0_12" function="internal">
        <lane id=":B0_12_0" index="0" speed="6.62" length="9.27" width="3.50" shape="264.00,19.75 266.52,19.39 268.31,18.31 269.39,16.52 269.75,14.00"/>
    </edge>
    <edge id=":B0_13" function="internal">
        <lane id=":B0_13_0" index="0" speed="13.89" length="22.00" width="3.50" shape="264.00,19.75 286.00,19.75"/>
        <lane id=":B0_13_1" index="1" speed="13.89" length="22.00" width="3.50" shape="264.00,23.25 286.00,23.25"/>
    </edge>
    <edge id=":B0_15" function="internal">
        <lane id=":B0_15_0" index="0" speed="9.55" length="20.56" width="3.50" shape="264.00,23.25 269.58,24.05 273.56,26.44 275.95,30.42 276.75,36.00"/>
    </edge>
    <edge id=":B1_0" function="internal">
        <lane id=":B1_0_0" index="0" speed="6.62" length="9.27" width="3.50" shape="269.75,469.00 269.39,466.48 268.31,464.69 266.52,463.61 264.00,463.25"/>
    </edge>
    <edge id=":B1_1" function="internal">
        <lane id=":B1_1_0" index="0" speed="13.89" length="22.00" width="3.50" shape="269.75,469.00 269.75,447.00"/>
        <lane id=":B1_1_1" index="1" speed="13.89" length="22.00" width="3.50" shape="273.25,469.00 273.25,447.00"/>
    </edge>
    <edge id=":B1_3" function="internal">
        <lane id=":B1_3_0" index="0" speed="9.55" length="7.49" width="3.50" shape="273.25,469.00 274.05,463.42 275.00,461.83"/>
    </edge>
    <edge id=":B1_16" function="internal">
        <lane id=":B1_16_0" index="0" speed="9.55" length="13.08" width="3.50" shape="275.00,461.83 276.44,459.44 280.42,457.05 286.00,456.25"/>
    </edge>
    <edge id=":B1_4" function="internal">
        <lane id=":B1_4_0" index="0" speed="6.62" length="9.27" width="3.50" shape="286.00,463.25 283.48,463.61 281.69,464.69 280.61,466.48 280.25,469.00"/>
    </edge>
    <edge id=":B1_5" function="internal">
        <lane id=":B1_5_0" index="0" speed="13.89" length="22.00" width="3.50" shape="286.00,463.25 264.00,463.25"/>
        <lane id=":B1_5_1" index="1" speed="13.89" length="22.00" width="3.50" shape="286.00,459.75 264.00,459.75"/>
    </edge>
    <edge id=":B1_7" function="internal">
        <lane id=":B1_7_0" index="0" speed="9.55" length="20.56" width="3.50" shape="286.00,459.75 280.42,458.95 276.44,456.56 274.05,452.58 273.25,447.00"/>
    </edge>
    <edge id=":B1_8" function="internal">
        <lane id=":B1_8_0" index="0" speed="6.62" length="9.27" width="3.50" shape="280.25,447.00 280.61,449.52 281.69,451.31 283.48,452.39 286.00,452.75"/>
    </edge>
    <edge id=":B1_9" function="internal">
        <lane id=":B1_9_0" index="0" speed="13.89" length="22.00" width="3.50" shape="280.25,447.00 280.25,469.00"/>
        <lane id=":B1_9_1" index="1" speed="13.89" length="22.00" width="3.50" shape="276.75,447.00 276.75,469.00"/>
    </edge>
    <edge id=":B1_11" function="internal">
        <lane id=":B1_11_0" index="0" speed="9.55" length="7.49" width="3.50" shape="276.75,447.00 275.95,452.58 275.00,454.17"/>
    </edge>
    <edge id=":B1_17" function="internal">
        <lane id=":B1_17_0" index="0" speed="9.55" length="13.08" width="3.50" shape="275.00,454.17 273.56,456.56 269.58,458.95 264.00,459.75"/>
    </edge>
    <edge id=":B1_12" function="internal">
        <lane id=":B1_12_0" index="0" speed="6.62" length="9.27" width="3.50" shape="264.00,452.75 266.52,452.39 268.31,451.31 269.39,449.52 269.75,447.00"/>
    </edge>
    <edge id=":B1_13" function="internal">
        <lane id=":B1_13_0" index="0" speed="13.89" length="22.00" width="3.50" shape="264.00,452.75 286.00,452.75"/>
        <lane id=":B1_13_1" index="1" speed="13.89" length="22.00" width="3.50" shape="264.00,456.25 286.00,456.25"/>
    </edge>
    <edge id=":B1_15" function="internal">
        <lane id=":B1_15_0" index="0" speed="9.55" length="20.56" width="3.50" shape="264.00,456.25 269.58,457.05 273.56,459.44 275.95,463.42 276.75,469.00"/>
    </edge>
    <edge id=":B2_0" function="internal">
        <lane id=":B2_0_0" index="0" speed="6.62" length="9.27" width="3.50" shape="269.75,902.00 269.39,899.48 268.31,897.69 266.52,896.61 264.00,896.25"/>
    </edge>
    <edge id=":B2_1" function="internal">
        <lane id=":B2_1_0" index="0" speed="13.89" length="22.00" width="3.50" shape="269.75,902.00 269.75,880.00"/>
        <lane id=":B2_1_1" index="1" speed="13.89" length="22.00" width="3.50" shape="273.25,902.00 273.25,880.00"/>
    </edge>
    <edge id=":B2_3" function="internal">
        <lane id=":B2_3_0" index="0" speed="9.55" length="7.49" width="3.50" shape="273.25,902.00 274.05,896.42 275.00,894.83"/>
    </edge>
    <edge id=":B2_16" function="internal">
        <lane id=":B2_16_0" index="0" speed="9.55" length="13.08" width="3.50" shape="275.00,894.83 276.44,892.44 280.42,890.05 286.00,889.25"/>
    </edge>
    <edge id=":B2_4" function="internal">
        <lane id=":B2_4_0" index="0" speed="6.62" length="9.27" width="3.50" shape="286.00,896.25 283.48,896.61 281.69,897.69 280.61,899.48 280.25,902.00"/>
    </edge>
    <edge id=":B2_5" function="internal">
        <lane id=":B2_5_0" index="0" speed="13.89" length="22.00" width="3.50" shape="286.00,896.25 264.00,896.25"/>
        <lane id=":B2_5_1" index="1" speed="13.89" length="22.00" width="3.50" shape="286.00,892.75 264.00,892.75"/>
    </edge>
    <edge id=":B2_7" function="internal">
        <lane id=":B2_7_0" index="0" speed="9.55" length="20.56" width="3.50" shape="286.00,892.75 280.42,891.95 276.44,889.56 274.05,885.58 273.25,880.00"/>
    </edge>
    <edge id=":B2_8" function="internal">
        <lane id=":B2_8_0" index="0" speed="6.62" length="9.27" width="3.50" shape="280.25,880.00 280.61,882.52 281.69,884.31 283.48,885.39 286.00,885.75"/>
    </edge>
    <edge id=":B2_9" function="internal">
        <lane id=":B2_9_0" index="0" speed="13.89" length="22.00" width="3.50" shape="280.25,880.00 280.25,902.00"/>
        <lane id=":B2_9_1" index="1" speed="13.89" length="22.00" width="3.50" shape="276.75,880.00 276.75,902.00"/>
    </edge>
    <edge id=":B2_11" function="internal">
        <lane id=":B2_11_0" index="0" speed="9.55" length="7.49" width="3.50" shape="276.75,880.00 275.95,885.58 275.00,887.17"/>
    </edge>
    <edge id=":B2_17" function="internal">
        <lane id=":B2_17_0" index="0" speed="9.55" length="13.08" width="3.50" shape="275.00,887.17 273.56,889.56 269.58,891.95 264.00,892.75"/>
    </edge>
    <edge id=":B2_12" function="internal">
        <lane id=":B2_12_0" index="0" speed="6.62" length="9.27" width="3.50" shape="264.00,885.75 266.52,885.39 268.31,884.31 269.39,882.52 269.75,880.00"/>
    </edge>
    <edge id=":B2_13" function="internal">
        <lane id=":B2_13_0" index="0" speed="13.89" length="22.00" width="3.50" shape="264.00,885.75 286.00,885.75"/>
        <lane id=":B2_13_1" index="1" speed="13.89" length="22.00" width="3.50" shape="264.00,889.25 286.00,889.25"/>
    </edge>
    <edge id=":B2_15" function="internal">
        <lane id=":B2_15_0" index="0" speed="9.55" length="20.56" width="3.50" shape="264.00,889.25 269.58,890.05 273.56,892.44 275.95,896.42 276.75,902.00"/>
    </edge>
    <edge id=":B3_0" function="internal">
        <lane id=":B3_0_0" index="0" speed="6.62" length="9.27" width="3.50" shape="269.75,1335.00 269.39,1332.48 268.31,1330.69 266.52,1329.61 264.00,1329.25"/>
    </edge>
    <edge id=":B3_1" function="internal">
        <lane id=":B3_1_0" index="0" speed="13.89" length="22.00" width="3.50" shape="269.75,1335.00 269.75,1313.00"/>
        <lane id=":B3_1_1" index="1" speed="13.89" length="22.00" width="3.50" shape="273.25,1335.00 273.25,1313.00"/>
    </edge>
    <edge id=":B3_3" function="internal">
        <lane id=":B3_3_0" index="0" speed="9.55" length="7.49" width="3.50" shape="273.25,1335.00 274.05,1329.42 275.00,1327.83"/>
    </edge>
    <edge id=":B3_16" function="internal">
        <lane id=":B3_16_0" index="0" speed="9.55" length="13.08" width="3.50" shape="275.00,1327.83 276.44,1325.44 280.42,1323.05 286.00,1322.25"/>
    </edge>
    <edge id=":B3_4" function="internal">
        <lane id=":B3_4_0" index="0" speed="6.62" length="9.27" width="3.50" shape="286.00,1329.25 283.48,1329.61 281.69,1330.69 280.61,1332.48 280.25,1335.00"/>
    </edge>
    <edge id=":B3_5" function="internal">
        <lane id=":B3_5_0" index="0" speed="13.89" length="22.00" width="3.50" shape="286.00,1329.25 264.00,1329.25"/>
        <lane id=":B3_5_1" index="1" speed="13.89" length="22.00" width="3.50" shape="286.00,1325.75 264.00,1325.75"/>
    </edge>
    <edge id=":B3_7" function="internal">
        <lane id=":B3_7_0" index="0" speed="9.55" length="20.56" width="3.50" shape="286.00,1325.75 280.42,1324.95 276.44,1322.56 274.05,1318.58 273.25,1313.00"/>
    </edge>
    <edge id=":B3_8" function="internal">
        <lane id=":B3_8_0" index="0" speed="6.62" length="9.27" width="3.50" shape="280.25,1313.00 280.61,1315.52 281.69,1317.31 283.48,1318.39 286.00,1318.75"/>
    </edge>
    <edge id=":B3_9" function="internal">
        <lane id=":B3_9_0" index="0" speed="13.89" length="22.00" width="3.50" shape="280.25,1313.00 280.25,1335.00"/>
        <lane id=":B3_9_1" index="1" speed="13.89" length="22.00" width="3.50" shape="276.75,1313.00 276.75,1335.00"/>
    </edge>
    <edge id=":B3_11" function="internal">
        <lane id=":B3_11_0" index="0" speed="9.55" length="7.49" width="3.50" shape="276.75,1313.00 275.95,1318.58 275.00,1320.17"/>
    </edge>
    <edge id=":B3_17" function="internal">
        <lane id=":B3_17_0" index="0" speed="9.55" length="13.08" width="3.50" shape="275.00,1320.17 273.56,1322.56 269.58,1324.95 264.00,1325.75"/>
    </edge>
    <edge id=":B3_12" function="internal">
        <lane id=":B3_12_0" index="0" speed="6.62" length="9.27" width="3.50" shape="264.00,1318.75 266.52,1318.39 268.31,1317.31 269.39,1315.52 269.75,1313.00"/>
    </edge>
    <edge id=":B3_13" function="internal">
        <lane id=":B3_13_0" index="0" speed="13.89" length="22.00" width="3.50" shape="264.00,1318.75 286.00,1318.75"/>
        <lane id=":B3_13_1" index="1" speed="13.89" length="22.00" width="3.50" shape="264.00,1322.25 286.00,1322.25"/>
    </edge>
    <edge id=":B3_15" function="internal">
        <lane id=":B3_15_0" index="0" speed="9.55" length="20.56" width="3.50" shape="264.00,1322.25 269.58,1323.05 273.56,1325.44 275.95,1329.42 276.75,1335.00"/>
    </edge>
    <edge id=":C0_0" function="internal">
        <lane id=":C0_0_0" index="0" speed="6.62" length="9.27" width="3.50" shape="519.75,36.00 519.39,33.48 518.31,31.69 516.52,30.61 514.00,30.25"/>
    </edge>
    <edge id=":C0_1" function="internal">
        <lane id=":C0_1_0" index="0" speed="13.89" length="22.00" width="3.50" shape="519.75,36.00 519.75,14.00"/>
        <lane id=":C0_1_1" index="1" speed="13.89" length="22.00" width="3.50" shape="523.25,36.00 523.25,14.00"/>
    </edge>
    <edge id=":C0_3" function="internal">
        <lane id=":C0_3_0" index="0" speed="9.55" length="7.49" width="3.50" shape="523.25,36.00 524.05,30.42 525.00,28.83"/>
    </edge>
    <edge id=":C0_16" function="internal">
        <lane id=":C0_16_0" index="0" speed="9.55" length="13.08" width="3.50" shape="525.00,28.83 526.44,26.44 530.42,24.05 536.00,23.25"/>
    </edge>
    <edge id=":C0_4" function="internal">
        <lane id=":C0_4_0" index="0" speed="6.62" length="9.27" width="3.50" shape="536.00,30.25 533.48,30.61 531.69,31.69 530.61,33.48 530.25,36.00"/>
    </edge>
    <edge id=":C0_5" function="internal">
        <lane id=":C0_5_0" index="0" speed="13.89" length="22.00" width="3.50" shape="536.00,30.25 514.00,30.25"/>
        <lane id=":C0_5_1" index="1" speed="13.89" length="22.00" width="3.50" shape="536.00,26.75 514.00,26.75"/>
    </edge>
    <edge id=":C0_7" function="internal">
        <lane id=":C0_7_0" index="0" speed="9.55" length="20.56" width="3.50" shape="536.00,26.75 530.42,25.95 526.44,23.56 524.05,19.58 523.25,14.00"/>
    </edge>
    <edge id=":C0_8" function="internal">
        <lane id=":C0_8_0" index="0" speed="6.62" length="9.27" width="3.50" shape="530.25,14.00 530.61,16.52 531.69,18.31 533.48,19.39 536.00,19.75"/>
    </edge>
    <edge id=":C0_9" function="internal">
        <lane id=":C0_9_0" index="0" speed="13.89" length="22.00" width="3.50" shape="530.25,14.00 530.25,36.00"/>
        <lane id=":C0_9_1" index="1" speed="13.89" length="22.00" width="3.50" shape="526.75,14.00 526.75,36.00"/>
    </edge>
    <edge id=":C0_11" function="internal">
        <lane id=":C0_11_0" index="0" speed="9.55" length="7.49" width="3.50" shape="526.75,14.00 525.95,19.58 525.00,21.17"/>
    </edge>
    <edge id=":C0_17" function="internal">
        <lane id=":C0_17_0" index="0" speed="9.55" length="13.08" width="3.50" shape="525.00,21.17 523.56,23.56 519.58,25.95 514.00,26.75"/>
    </edge>
    <edge id=":C0_12" function="internal">
        <lane id=":C0_12_0" index="0" speed="6.62" length="9.27" width="3.50" shape="514.00,19.75 516.52,19.39 518.31,18.31 519.39,16.52 519.75,14.00"/>
    </edge>
    <edge id=":C0_13" function="internal">
        <lane id=":C0_13_0" index="0" speed="13.89" length="22.00" width="3.50" shape="514.00,19.75 536.00,19.75"/>
        <lane id=":C0_13_1" index="1" speed="13.89" length="22.00" width="3.50" shape="514.00,23.25 536.00,23.25"/>
    </edge>
    <edge id=":C0_15" function="internal">
        <lane id=":C0_15_0" index="0" speed="9.55" length="20.56" width="3.50" shape="514.00,23.25 519.58,24.05 523.56,26.44 525.95,30.42 526.75,36.00"/>
    </edge>
    <edge id=":C1_0" function="internal">
        <lane id=":C1_0_0" index="0" speed="6.62" length="9.27" width="3.50" shape="519.75,469.00 519.39,466.48 518.31,464.69 516.52,463.61 514.00,463.25"/>
    </edge>
    <edge id=":C1_1" function="internal">
        <lane id=":C1_1_0" index="0" speed="13.89" length="22.00" width="3.50" shape="519.75,469.00 519.75,447.00"/>
        <lane id=":C1_1_1" index="1" speed="13.89" length="22.00" width="3.50" shape="523.25,469.00 523.25,447.00"/>
    </edge>
    <edge id=":C1_3" function="internal">
        <lane id=":C1_3_0" index="0" speed="9.55" length="7.49" width="3.50" shape="523.25,469.00 524.05,463.42 525.00,461.83"/>
    </edge>
    <edge id=":C1_16" function="internal">
        <lane id=":C1_16_0" index="0" speed="9.55" length="13.08" width="3.50" shape="525.00,461.83 526.44,459.44 530.42,457.05 536.00,456.25"/>
    </edge>
    <edge id=":C1_4" function="internal">
        <lane id=":C1_4_0" index="0" speed="6.62" length="9.27" width="3.50" shape="536.00,463.25 533.48,463.61 531.69,464.69 530.61,466.48 530.25,469.00"/>
    </edge>
    <edge id=":C1_5" function="internal">
        <lane id=":C1_5_0" index="0" speed="13.89" length="22.00" width="3.50" shape="536.00,463.25 514.00,463.25"/>