<?xml version="1.0" encoding="UTF-8"?>

<!-- generated on Tue 02 Apr 2019 21:53:39 IST by Eclipse SUMO netedit Version 1.1.0
<configuration xmlns:xsi="http://www.w3.org/2001/XMLSchema-instance" xsi:noNamespaceSchemaLocation="http://sumo.dlr.de/xsd/netconvertConfiguration.xsd">

    <input>
        <sumo-net-file value="grid_fast.net.xml"/>
    </input>

    <output>
        <output-file value="grid_fast.net.xml"/>
    </output>

    <processing>
        <geometry.max-grade.fix value="false"/>
        <offset.disable-normalization value="true"/>
        <lefthand value="false"/>
    </processing>

    <junctions>
        <no-turnarounds value="true"/>
        <junctions.corner-detail value="5"/>
        <junctions.limit-turn-speed value="5.5"/>
        <rectangular-lane-cut value="false"/>
    </junctions>

    <pedestrian>
        <walkingareas value="false"/>
    </pedestrian>

</configuration>
-->

<net version="1.1" junctionCornerDetail="5" limitTurnSpeed="5.50" xmlns:xsi="http://www.w3.org/2001/XMLSchema-instance" xsi:noNamespaceSchemaLocation="http://sumo.dlr.de/xsd/net_file.xsd">

    <location netOffset="0.00,0.00" convBoundary="0.00,0.00,750.00,1299.00" origBoundary="0.00,0.00,750.00,1299.00" projParameter="!"/>

    <edge id=":A0_0" function="internal">
        <lane id=":A0_0_0" index="0" speed="10.40" length="24.59" width="3.50" shape="-5.25,10.00 -4.30,3.33 -1.44,-1.44 3.33,-4.30 10.00,-5.25"/>
    </edge>
    <edge id=":A0_1" function="internal">
        <lane id=":A0_1_0" index="0" speed="9.19" length="18.95" width="3.50" shape="-1.75,10.00 -1.02,4.86 1.19,1.19 4.86,-1.02 10.00,-1.75"/>
    </edge>
    <edge id=":A0_2" function="internal">
        <lane id=":A0_2_0" index="0" disallow="pedestrian" speed="6.08" length="7.66" width="3.50" shape="10.00,5.25 7.92,5.55 6.44,6.44 5.55,7.92 5.25,10.00"/>
    </edge>
    <edge id=":A0_3" function="internal">
        <lane id=":A0_3_0" index="0" disallow="pedestrian" speed="7.79" length="13.31" width="3.50" shape="10.00,1.75 6.39,2.27 3.81,3.81 2.27,6.39 1.75,10.00"/>
    </edge>
    <edge id=":A1_0" function="internal">
        <lane id=":A1_0_0" index="0" speed="60.00" length="23.00" width="3.50" shape="-5.25,444.50 -5.25,421.50"/>
        <lane id=":A1_0_1" index="1" speed="60.00" length="23.00" width="3.50" shape="-1.75,444.50 -1.75,421.50"/>
    </edge>
    <edge id=":A1_2" function="internal">
        <lane id=":A1_2_0" index="0" disallow="pedestrian" speed="9.73" length="21.37" width="3.50" shape="-1.75,444.50 -0.92,438.70 1.56,434.56 5.70,432.08 11.50,431.25"/>
    </edge>
    <edge id=":A1_3" function="internal">
        <lane id=":A1_3_0" index="0" disallow="pedestrian" speed="6.87" length="10.08" width="3.50" shape="11.50,438.25 8.77,438.64 6.81,439.81 5.64,441.77 5.25,444.50"/>
    </edge>
    <edge id=":A1_4" function="internal">
        <lane id=":A1_4_0" index="0" disallow="pedestrian" speed="8.42" length="15.72" width="3.50" shape="11.50,434.75 7.23,435.36 4.19,437.19 2.36,440.23 1.75,444.50"/>
    </edge>
    <edge id=":A1_5" function="internal">
        <lane id=":A1_5_0" index="0" speed="9.73" length="21.37" width="3.50" shape="11.50,434.75 5.70,433.92 1.56,431.44 -0.92,427.30 -1.75,421.50"/>
    </edge>
    <edge id=":A1_6" function="internal">
        <lane id=":A1_6_0" index="0" disallow="pedestrian" speed="6.87" length="10.08" width="3.50" shape="5.25,421.50 5.64,424.23 6.81,426.19 8.77,427.36 11.50,427.75"/>
    </edge>
    <edge id=":A1_7" function="internal">
        <lane id=":A1_7_0" index="0" disallow="pedestrian" speed="60.00" length="23.00" width="3.50" shape="5.25,421.50 5.25,444.50"/>
        <lane id=":A1_7_1" index="1" disallow="pedestrian" speed="60.00" length="23.00" width="3.50" shape="1.75,421.50 1.75,444.50"/>
    </edge>
    <edge id=":A2_0" function="internal">
        <lane id=":A2_0_0" index="0" speed="60.00" length="23.00" width="3.50" shape="-5.25,877.50 -5.25,854.50"/>
        <lane id=":A2_0_1" index="1" speed="60.00" length="23.00" width="3.50" shape="-1.75,877.50 -1.75,854.50"/>
    </edge>
    <edge id=":A2_2" function="internal">
        <lane id=":A2_2_0" index="0" disallow="pedestrian" speed="9.73" length="21.37" width="3.50" shape="-1.75,877.50 -0.92,871.70 1.56,867.56 5.70,865.08 11.50,864.25"/>
    </edge>
    <edge id=":A2_3" function="internal">
        <lane id=":A2_3_0" index="0" disallow="pedestrian" speed="6.87" length="10.08" width="3.50" shape="11.50,871.25 8.77,871.64 6.81,872.81 5.64,874.77 5.25,877.50"/>
    </edge>
    <edge id=":A2_4" function="internal">
        <lane id=":A2_4_0" index="0" disallow="pedestrian" speed="8.42" length="15.72" width="3.50" shape="11.50,867.75 7.23,868.36 4.19,870.19 2.36,873.23 1.75,877.50"/>
    </edge>
    <edge id=":A2_5" function="internal">
        <lane id=":A2_5_0" index="0" speed="9.73" length="21.37" width="3.50" shape="11.50,867.75 5.70,866.92 1.56,864.44 -0.92,860.30 -1.75,854.50"/>
    </edge>
    <edge id=":A2_6" function="internal">
        <lane id=":A2_6_0" index="0" disallow="pedestrian" speed="6.87" length="10.08" width="3.50" shape="5.25,854.50 5.64,857.23 6.81,859.19 8.77,860.36 11.50,860.75"/>
    </edge>
    <edge id=":A2_7" function="internal">
        <lane id=":A2_7_0" index="0" disallow="pedestrian" speed="60.00" length="23.00" width="3.50" shape="5.25,854.50 5.25,877.50"/>
        <lane id=":A2_7_1" index="1" disallow="pedestrian" speed="60.00" length="23.00" width="3.50" shape="1.75,854.50 1.75,877.50"/>
    </edge>
    <edge id=":A3_0" function="internal">
        <lane id=":A3_0_0" index="0" speed="10.40" length="24.59" width="3.50" shape="10.00,1304.25 3.33,1303.30 -1.44,1300.44 -4.30,1295.67 -5.25,1289.00"/>
    </edge>
    <edge id=":A3_1" function="internal">
        <lane id=":A3_1_0" index="0" speed="9.19" length="18.95" width="3.50" shape="10.00,1300.75 4.86,1300.02 1.19,1297.81 -1.02,1294.14 -1.75,1289.00"/>
    </edge>
    <edge id=":A3_2" function="internal">
        <lane id=":A3_2_0" index="0" disallow="pedestrian" speed="6.08" length="7.66" width="3.50" shape="5.25,1289.00 5.55,1291.08 6.44,1292.56 7.92,1293.45 10.00,1293.75"/>
    </edge>
    <edge id=":A3_3" function="internal">
        <lane id=":A3_3_0" index="0" disallow="pedestrian" speed="7.79" length="13.31" width="3.50" shape="1.75,1289.00 2.27,1292.61 3.81,1295.19 6.39,1296.73 10.00,1297.25"/>
    </edge>
    <edge id=":B0_0" function="internal">
        <lane id=":B0_0_0" index="0" disallow="pedestrian" speed="6.87" length="10.08" width="3.50" shape="244.75,11.50 244.36,8.77 243.19,6.81 241.23,5.64 238.50,5.25"/>
    </edge>
    <edge id=":B0_1" function="internal">
        <lane id=":B0_1_0" index="0" disallow="pedestrian" speed="8.42" length="15.72" width="3.50" shape="248.25,11.50 247.64,7.23 245.81,4.19 242.77,2.36 238.50,1.75"/>
    </edge>
    <edge id=":B0_2" function="internal">
        <lane id=":B0_2_0" index="0" speed="9.73" length="21.37" width="3.50" shape="248.25,11.50 249.08,5.70 251.56,1.56 255.70,-0.92 261.50,-1.75"/>
    </edge>
    <edge id=":B0_3" function="internal">
        <lane id=":B0_3_0" index="0" disallow="pedestrian" speed="6.87" length="10.08" width="3.50" shape="261.50,5.25 258.77,5.64 256.81,6.81 255.64,8.77 255.25,11.50"/>
    </edge>
    <edge id=":B0_4" function="internal">
        <lane id=":B0_4_0" index="0" disallow="pedestrian" speed="60.00" length="23.00" width="3.50" shape="261.50,5.25 238.50,5.25"/>
        <lane id=":B0_4_1" index="1" disallow="pedestrian" speed="60.00" length="23.00" width="3.50" shape="261.50,1.75 238.50,1.75"/>
    </edge>
    <edge id=":B0_6" function="internal">
        <lane id=":B0_6_0" index="0" speed="60.00" length="23.00" width="3.50" shape="238.50,-5.25 261.50,-5.25"/>
        <lane id=":B0_6_1" index="1" speed="60.00" length="23.00" width="3.50" shape="238.50,-1.75 261.50,-1.75"/>
    </edge>
    <edge id=":B0_8" function="internal">
        <lane id=":B0_8_0" index="0" disallow="pedestrian" speed="9.73" length="21.37" width="3.50" shape="238.50,-1.75 244.30,-0.92 248.44,1.56 250.92,5.70 251.75,11.50"/>
    </edge>
    <edge id=":B1_0" function="internal">
        <lane id=":B1_0_0" index="0" disallow="pedestrian" speed="6.87" length="10.08" width="3.50" shape="244.75,444.50 244.36,441.77 243.19,439.81 241.23,438.64 238.50,438.25"/>
    </edge>
    <edge id=":B1_1" function="internal">
        <lane id=":B1_1_0" index="0" disallow="pedestrian" speed="60.00" length="23.00" width="3.50" shape="244.75,444.50 244.75,421.50"/>
        <lane id=":B1_1_1" index="1" disallow="pedestrian" speed="60.00" length="23.00" width="3.50" shape="248.25,444.50 248.25,421.50"/>
    </edge>
    <edge id=":B1_3" function="internal">
        <lane id=":B1_3_0" index="0" disallow="pedestrian" speed="9.73" length="7.65" width="3.50" shape="248.25,444.50 249.08,438.70 250.00,437.17"/>
    </edge>
    <edge id=":B1_16" function="internal">
        <lane id=":B1_16_0" index="0" disallow="pedestrian" speed="9.73" length="13.72" width="3.50" shape="250.00,437.17 251.56,434.56 255.70,432.08 261.50,431.25"/>
    </edge>
    <edge id=":B1_4" function="internal">
        <lane id=":B1_4_0" index="0" disallow="pedestrian" speed="6.87" length="10.08" width="3.50" shape="261.50,438.25 258.77,438.64 256.81,439.81 255.64,441.77 255.25,444.50"/>
    </edge>
    <edge id=":B1_5" function="internal">
        <lane id=":B1_5_0" index="0" disallow="pedestrian" speed="60.00" length="23.00" width="3.50" shape="261.50,438.25 238.50,438.25"/>
        <lane id=":B1_5_1" index="1" disallow="pedestrian" speed="60.00" length="23.00" width="3.50" shape="261.50,434.75 238.50,434.75"/>
    </edge>
    <edge id=":B1_7" function="internal">
        <lane id=":B1_7_0" index="0" disallow="pedestrian" speed="9.73" length="21.37" width="3.50" shape="261.50,434.75 255.70,433.92 251.56,431.44 249.08,427.30 248.25,421.50"/>
    </edge>
    <edge id=":B1_8" function="internal">
        <lane id=":B1_8_0" index="0" disallow="pedestrian" speed="6.87" length="10.08" width="3.50" shape="255.25,421.50 255.64,424.23 256.81,426.19 258.77,427.36 261.50,427.75"/>
    </edge>
    <edge id=":B1_9" function="internal">
        <lane id=":B1_9_0" index="0" disallow="pedestrian" speed="60.00" length="23.00" width="3.50" shape="255.25,421.50 255.25,444.50"/>
        <lane id=":B1_9_1" index="1" disallow="pedestrian" speed="60.00" length="23.00" width="3.50" shape="251.75,421.50 251.75,444.50"/>
    </edge>
    <edge id=":B1_11" function="internal">
        <lane id=":B1_11_0" index="0" disallow="pedestrian" speed="9.73" length="7.65" width="3.50" shape="251.75,421.50 250.92,427.30 250.00,428.83"/>
    </edge>
    <edge id=":B1_17" function="internal">
        <lane id=":B1_17_0" index="0" disallow="pedestrian" speed="9.73" length="13.72" width="3.50" shape="250.00,428.83 248.44,431.44 244.30,433.92 238.50,434.75"/>
    </edge>
    <edge id=":B1_12" function="internal">
        <lane id=":B1_12_0" index="0" disallow="pedestrian" speed="6.87" length="10.08" width="3.50" shape="238.50,427.75 241.23,427.36 243.19,426.19 244.36,424.23 244.75,421.50"/>
    </edge>
    <edge id=":B1_13" function="internal">
        <lane id=":B1_13_0" index="0" disallow="pedestrian" speed="60.00" length="23.00" width="3.50" shape="238.50,427.75 261.50,427.75"/>
        <lane id=":B1_13_1" index="1" disallow="pedestrian" speed="60.00" length="23.00" width="3.50" shape="238.50,431.25 261.50,431.25"/>
    </edge>
    <edge id=":B1_15" function="internal">
        <lane id=":B1_15_0" index="0" disallow="pedestrian" speed="9.73" length="21.37" width="3.50" shape="238.50,431.25 244.30,432.08 248.44,434.56 250.92,438.70 251.75,444.50"/>
    </edge>
    <edge id=":B2_0" function="internal">
        <lane id=":B2_0_0" index="0" disallow="pedestrian" speed="6.87" length="10.08" width="3.50" shape="244.75,877.50 244.36,874.77 243.19,872.81 241.23,871.64 238.50,871.25"/>
    </edge>
    <edge id=":B2_1" function="internal">
        <lane id=":B2_1_0" index="0" disallow="pedestrian" speed="60.00" length="23.00" width="3.50" shape="244.75,877.50 244.75,854.50"/>
        <lane id=":B2_1_1" index="1" disallow="pedestrian" speed="60.00" length="23.00" width="3.50" shape="248.25,877.50 248.25,854.50"/>
    </edge>
    <edge id=":B2_3" function="internal">
        <lane id=":B2_3_0" index="0" disallow="pedestrian" speed="9.73" length="7.65" width="3.50" shape="248.25,877.50 249.08,871.70 250.00,870.17"/>
    </edge>
    <edge id=":B2_16" function="internal">
        <lane id=":B2_16_0" index="0" disallow="pedestrian" speed="9.73" length="13.72" width="3.50" shape="250.00,870.17 251.56,867.56 255.70,865.08 261.50,864.25"/>
    </edge>
    <edge id=":B2_4" function="internal">
        <lane id=":B2_4_0" index="0" disallow="pedestrian" speed="6.87" length="10.08" width="3.50" shape="261.50,871.25 258.77,871.64 256.81,872.81 255.64,874.77 255.25,877.50"/>
    </edge>
    <edge id=":B2_5" function="internal">
        <lane id=":B2_5_0" index="0" disallow="pedestrian" speed="60.00" length="23.00" width="3.50" shape="261.50,871.25 238.50,871.25"/>
        <lane id=":B2_5_1" index="1" disallow="pedestrian" speed="60.00" length="23.00" width="3.50" shape="261.50,867.75 238.50,867.75"/>
    </edge>
    <edge id=":B2_7" function="internal">
        <lane id=":B2_7_0" index="0" disallow="pedestrian" speed="9.73" length="21.37" width="3.50" shape="261.50,867.75 255.70,866.92 251.56,864.44 249.08,860.30 248.25,854.50"/>
    </edge>
    <edge id=":B2_8" function="internal">
        <lane id=":B2_8_0" index="0" disallow="pedestrian" speed="6.87" length="10.08" width="3.50" shape="255.25,854.50 255.64,857.23 256.81,859.19 258.77,860.36 261.50,860.75"/>
    </edge>
    <edge id=":B2_9" function="internal">
        <lane id=":B2_9_0" index="0" disallow="pedestrian" speed="60.00" length="23.00" width="3.50" shape="255.25,854.50 255.25,877.50"/>
        <lane id=":B2_9_1" index="1" disallow="pedestrian" speed="60.00" length="23.00" width="3.50" shape="251.75,854.50 251.75,877.50"/>
    </edge>
    <edge id=":B2_11" function="internal">
        <lane id=":B2_11_0" index="0" disallow="pedestrian" speed="9.73" length="7.65" width="3.50" shape="251.75,854.50 250.92,860.30 250.00,861.83"/>
    </edge>
    <edge id=":B2_17" function="internal">
        <lane id=":B2_17_0" index="0" disallow="pedestrian" speed="9.73" length="13.72" width="3.50" shape="250.00,861.83 248.44,864.44 244.30,866.92 238.50,867.75"/>
    </edge>
    <edge id=":B2_12" function="internal">
        <lane id=":B2_12_0" index="0" disallow="pedestrian" speed="6.87" length="10.08" width="3.50" shape="238.50,860.75 241.23,860.36 243.19,859.19 244.36,857.23 244.75,854.50"/>
    </edge>
    <edge id=":B2_13" function="internal">
        <lane id=":B2_13_0" index="0" disallow="pedestrian" speed="60.00" length="23.00" width="3.50" shape="238.50,860.75 261.50,860.75"/>
        <lane id=":B2_13_1" index="1" disallow="pedestrian" speed="60.00" length="23.00" width="3.50" shape="238.50,864.25 261.50,864.25"/>
    </edge>
    <edge id=":B2_15" function="internal">
        <lane id=":B2_15_0" index="0" disallow="pedestrian" speed="9.73" length="21.37" width="3.50" shape="238.50,864.25 244.30,865.08 248.44,867.56 250.92,871.70 251.75,877.50"/>
    </edge>
    <edge id=":B3_0" function="internal">
        <lane id=":B3_0_0" index="0" speed="60.00" length="23.00" width="3.50" shape="261.50,1304.25 238.50,1304.25"/>
        <lane id=":B3_0_1" index="1" speed="60.00" length="23.00" width="3.50" shape="261.50,1300.75 238.50,1300.75"/>
    </edge>
    <edge id=":B3_2" function="internal">
        <lane id=":B3_2_0" index="0" disallow="pedestrian" speed="9.73" length="21.37" width="3.50" shape="261.50,1300.75 255.70,1299.92 251.56,1297.44 249.08,1293.30 248.25,1287.50"/>
    </edge>
    <edge id=":B3_3" function="internal">
        <lane id=":B3_3_0" index="0" disallow="pedestrian" speed="6.87" length="10.08" width="3.50" shape="255.25,1287.50 255.64,1290.23 256.81,1292.19 258.77,1293.36 261.50,1293.75"/>
    </edge>
    <edge id=":B3_4" function="internal">
        <lane id=":B3_4_0" index="0" disallow="pedestrian" speed="8.42" length="15.72" width="3.50" shape="251.75,1287.50 252.36,1291.77 254.19,1294.81 257.23,1296.64 261.50,1297.25"/>
    </edge>
    <edge id=":B3_5" function="internal">
        <lane id=":B3_5_0" index="0" speed="9.73" length="21.37" width="3.50" shape="251.75,1287.50 250.92,1293.30 248.44,1297.44 244.30,1299.92 238.50,1300.75"/>
    </edge>
    <edge id=":B3_6" function="internal">
        <lane id=":B3_6_0" index="0" disallow="pedestrian" speed="6.87" length="10.08" width="3.50" shape="238.50,1293.75 241.23,1293.36 243.19,1292.19 244.36,1290.23 244.75,1287.50"/>
    </edge>
    <edge id=":B3_7" function="internal">
        <lane id=":B3_7_0" index="0" disallow="pedestrian" speed="60.00" length="23.00" width="3.50" shape="238.50,1293.75 261.50,1293.75"/>
        <lane id=":B3_7_1" index="1" disallow="pedestrian" speed="60.00" length="23.00" width="3.50" shape="238.50,1297.25 261.50,1297.25"/>
    </edge>
    <edge id=":C0_0" function="internal">
        <lane id=":C0_0_0" index="0" disallow="pedestrian" speed="6.87" length="10.08" width="3.50" shape="494.75,11.50 494.36,8.77 493.19,6.81 491.23,5.64 488.50,5.25"/>
    </edge>
    <edge id=":C0_1" function="internal">
        <lane id=":C0_1_0" index="0" disallow="pedestrian" speed="8.42" length="15.72" width="3.50" shape="498.25,11.50 497.64,7.23 495.81,4.19 492.77,2.36 488.50,1.75"/>
    </edge>
    <edge id=":C0_2" function="internal">
        <lane id=":C0_2_0" index="0" speed="9.73" length="21.37" width="3.50" shape="498.25,11.50 499.08,5.70 501.56,1.56 505.70,-0.92 511.50,-1.75"/>
    </edge>
    <edge id=":C0_3" function="internal">
        <lane id=":C0_3_0" index="0" disallow="pedestrian" speed="6.87" length="10.08" width="3.50" shape="511.50,5.25 508.77,5.64 506.81,6.81 505.64,8.77 505.25,11.50"/>
    </edge>
    <edge id=":C0_4" function="internal">
        <lane id=":C0_4_0" index="0" disallow="pedestrian" speed="60.00" length="23.00" width="3.50" shape="511.50,5.25 488.50,5.25"/>
        <lane id=":C0_4_1" index="1" disallow="pedestrian" speed="60.00" length="23.00" width="3.50" shape="511.50,1.75 488.50,1.75"/>
    </edge>
    <edge id=":C0_6" function="internal">
        <lane id=":C0_6_0" index="0" speed="60.00" length="23.00" width="3.50" shape="488.50,-5.25 511.50,-5.25"/>
        <lane id=":C0_6_1" index="1" speed="60.00" length="23.00" width="3.50" shape="488.50,-1.75 511.50,-1.75"/>
    </edge>
    <edge id=":C0_8" function="internal">
        <lane id=":C0_8_0" index="0" disallow="pedestrian" speed="9.73" length="21.37" width="3.50" shape="488.50,-1.75 494.30,-0.92 498.44,1.56 500.92,5.70 501.75,11.50"/>
    </edge>
    <edge id=":C1_0" function="internal">
        <lane id=":C1_0_0" index="0" disallow="pedestrian" speed="6.87" length="10.08" width="3.50" shape="494.75,444.50 494.36,441.77 493.19,439.81 491.23,438.64 488.50,438.25"/>
    </edge>
    <edge id=":C1_1" function="internal">
        <lane id=":C1_1_0" index="0" disallow="pedestrian" speed="60.00" length="23.00" width="3.50" shape="494.75,444.50 494.75,421.50"/>
        <lane id=":C1_1_1" index="1" disallow="pedestrian" speed="60.00" length="23.00" width="3.50" shape="498.25,444.50 498.25,421.50"/>
    </edge>
    <edge id=":C1_3" function="internal">
        <lane id=":C1_3_0" index="0" disallow="pedestrian" speed="9.73" length="7.65" width="3.50" shape="498.25,444.50 499.08,438.70 500.00,437.17"/>
    </edge>
    <edge id=":C1_16" function="internal">
        <lane id=":C1_16_0" index="0" disallow="pedestrian" speed="9.73" length="13.72" width="3.50" shape="500.00,437.17 501.56,434.56 505.70,432.08 511.50,431.25"/>
    </edge>
    <edge id=":C1_4" function="internal">
        <lane id=":C1_4_0" index="0" disallow="pedestrian" speed="6.87" length="10.08" width="3.50" shape="511.50,438.25 508.77,438.64 506.81,439.81 505.64,441.77 505.25,444.50"/>
    </edge>
    <edge id=":C1_5" function="internal">
        <lane id=":C1_5_0" index="0" disallow="pedestrian" speed="60.00" length="23.00" width="3.50" shape="511.50,438.25 488.50,438.25"/>
        <lane id=":C1_5_1" index="1" disallow="pedestrian" speed="60.00" length="23.00" width="3.50" shape="511.50,434.75 488.50,434.75"/>
    </edge>
    <edge id=":C1_7" function="internal">
        <lane id=":C1_7_0" index="0" disallow="pedestrian" speed="9.73" length="21.37" width="3.50" shape="511.50,434.75 505.70,433.92 501.56,431.44 499.08,427.30 498.25,421.50"/>
    </edge>
    <edge id=":C1_8" function="internal">
        <lane id=":C1_8_0" index="0" disallow="pedestrian" speed="6.87" length="10.08" width="3.50" shape="505.25,421.50 505.64,424.23 506.81,426.19 508.77,427.36 511.50,427.75"/>
    </edge>
    <edge id=":C1_9" function="internal">
        <lane id=":C1_9_0" index="0" disallow="pedestrian" speed="60.00" length="23.00" width="3.50" shape="505.25,421.50 505.25,444.50"/>
        <lane id=":C1_9_1" index="1" disallow="pedestrian" speed="60.00" length="23.00" width="3.50" shape="501.75,421.50 501.75,444.50"/>
    </edge>
    <edge id=":C1_11" function="internal">
        <lane id=":C1_11_0" index="0" disallow="pedestrian" speed="9.73" length="7.65" width="3.50" shape="501.75,421.50 500.92,427.30 500.00,428.83"/>
    </edge>
    <edge id=":C1_17" function="internal">
        <lane id=":C1_17_0" index="0" disallow="pedestrian" speed="9.73" length="13.72" width="3.50" shape="500.00,428.83 498.44,431.44 494.30,433.92 488.50,434.75"/>
    </edge>
    <edge id=":C1_12" function="internal">
        <lane id=":C1_12_0" index="0" disallow="pedestrian" speed="6.87" length="10.08" width="3.50" shape="488.50,427.75 491.23,427.36 493.19,426.19 494.36,424.23 494.75,421.50"/>
    </edge>
    <edge id=":C1_13" function="internal">
        <lane id=":C1_13_0" index="0" disallow="pedestrian" speed="60.00" length="23.00" width="3.50" shape="488.50,427.75 511.50,427.75"/>
        <lane id=":C1_13_1" index="1" disallow="pedestrian" speed="60.00" length="23.00" width="3.50" shape="488.50,431.25 511.50,431.25"/>
    </edge>
    <edge id=":C1_15" function="internal">
        <lane id=":C1_15_0" index="0" disallow="pedestrian" speed="9.73" length="21.37" width="3.50" shape="488.50,431.25 494.30,432.08 498.44,434.56 500.92,438.70 501.75,444.50"/>
    </edge>
    <edge id=":C2_0" function="internal">
        <lane id=":C2_0_0" index="0" disallow="pedestrian" speed="6.87" length="10.08" width="3.50" shape="494.75,877.50 494.36,874.77 493.19,872.81 491.23,871.64 488.50,871.25"/>
    </edge>
    <edge id=":C2_1" function="internal">
        <lane id=":C2_1_0" index="0" disallow="pedestrian" speed="60.00" length="23.00" width="3.50" shape="494.75,877.50 494.75,854.50"/>
        <lane id=":C2_1_1" index="1" disallow="pedestrian" speed="60.00" length="23.00" width="3.50" shape="498.25,877.50 498.25,854.50"/>
    </edge>
    <edge id=":C2_3" function="internal">
        <lane id=":C2_3_0" index="0" disallow="pedestrian" speed="9.73" length="7.65" width="3.50" shape="498.25,877.50 499.08,871.70 500.00,870.17"/>
    </edge>
    <edge id=":C2_16" function="internal">
        <lane id=":C2_16_0" index="0" disallow="pedestrian" speed="9.73" length="13.72" width="3.50" shape="500.00,870.17 501.56,867.56 505.70,865.08 511.50,864.25"/>
    </edge>
    <edge id=":C2_4" function="internal">
        <lane id=":C2_4_0" index="0" disallow="pedestrian" speed="6.87" length="10.08" width="3.50" shape="511.50,871.25 508.77,871.64 506.81,872.81 505.64,874.77 505.25,877.50"/>
    </edge>
    <edge id=":C2_5" function="internal">
        <lane id=":C2_5_0" index="0" disallow="pedestrian" speed="60.00" length="23.00" width="3.50" shape="511.50,871.25 488.50,871.25"/>
        <lane id=":C2_5_1" index="1" disallow="pedestrian" speed="60.00" length="23.00" width="3.50" shape="511.50,867.75 488.50,867.75"/>
    </edge>
    <edge id=":C2_7" function="internal">
        <lane id=":C2_7_0" index="0" disallow="pedestrian" speed="9.73" length="21.37" width="3.50" shape="511.50,867.75 505.70,866.92 501.56,864.44 499.08,860.30 498.25,854.50"/>
    </edge>
    <edge id=":C2_8" function="internal">
        <lane id=":C2_8_0" index="0" disallow="pedestrian" speed="6.87" length="10.08" width="3.50" shape="505.25,854.50 505.64,857.23 506.81,859.19 508.77,860.36 511.50,860.75"/>
    </edge>
    <edge id=":C2_9" function="internal">
        <lane id=":C2_9_0" index="0" disallow="pedestrian" speed="60.00" length="23.00" width="3.50" shape="505.25,854.50 505.25,877.50"/>
        <lane id=":C2_9_1" index="1" disallow="pedestrian" speed="60.00" length="23.00" width="3.50" shape="501.75,854.50 501.75,877.50"/>
    </edge>
    <edge id=":C2_11" function="internal">
        <lane id=":C2_11_0" index="0" disallow="pedestrian" speed="9.73" length="7.65" width="3.50" shape="501.75,854.50 500.92,860.30 500.00,861.83"/>
    </edge>
    <edge id=":C2_17" function="internal">
        <lane id=":C2_17_0" index="0" disallow="pedestrian" speed="9.73" length="13.72" width="3.50" shape="500.00,861.83 498.44,864.44 494.30,866.92 488.50,867.75"/>
    </edge>
    <edge id=":C2_12" function="internal">
        <lane id=":C2_12_0" index="0" disallow="pedestrian" speed="6.87" length="10.08" width="3.50" shape="488.50,860.75 491.23,860.36 493.19,859.19 494.36,857.23 494.75,854.50"/>
    </edge>
    <edge id=":C2_13" function="internal">
        <lane id=":C2_13_0" index="0" disallow="pedestrian" speed="60.00" length="23.00" width="3.50" shape="488.50,860.75 511.50,860.75"/>
        <lane id=":C2_13_1" index="1" disallow="pedestrian" speed="60.00" length="23.00" width="3.50" shape="488.50,864.25 511.50,864.25"/>
    </edge>
    <edge id=":C2_15" function="internal">
        <lane id=":C2_15_0" index="0" disallow="pedestrian" speed="9.73" length="21.37" width="3.50" shape="488.50,864.25 494.30,865.08 498.44,867.56 500.92,871.70 501.75,877.50"/>
    </edge>
    <edge id=":C3_0" function="internal">
        <lane id=":C3_0_0" index="0" speed="60.00" length="23.00" width="3.50" shape="511.50,1304.25 488.50,1304.25"/>
        <lane id=":C3_0_1" index="1" speed="60.00" length="23.00" width="3.50" shape="511.50,1300.75 488.50,1300.75"/>
    </edge>
    <edge id=":C3_2" function="internal">
        <lane id=":C3_2_0" index="0" disallow="pedestrian" speed="9.73" length="21.37" width="3.50" shape="511.50,1300.75 505.70,1299.92 501.56,1297.44 499.08,1293.30 498.25,1287.50"/>
    </edge>
    <edge id=":C3_3" function="internal">
        <lane id=":C3_3_0" index="0" disallow="pedestrian" speed="6.87" length="10.08" width="3.50" shape="505.25,1287.50 505.64,1290.23 506.81,1292.19 508.77,1293.36 511.50,1293.75"/>
    </edge>
    <edge id=":C3_4" function="internal">
        <lane id=":C3_4_0" index="0" disallow="pedestrian" speed="8.42" length="15.72" width="3.50" shape="501.75,1287.50 502.36,1291.77 504.19,1294.81 507.23,1296.64 511.50,1297.25"/>
    </edge>
    <edge id=":C3_5" function="internal">
        <lane id=":C3_5_0" index="0" speed="9.73" length="21.37" width="3.50" shape="501.75,1287.50 500.92,1293.30 498.44,1297.44 494.30,1299.92 488.50,1300.75"/>
    </edge>
    <edge id=":C3_6" function="internal">
        <lane id=":C3_6_0" index="0" disallow="pedestrian" speed="6.87" length="10.08" width="3.50" shape="488.50,1293.75 491.23,1293.36 493.19,1292.19 494.36,1290.23 494.75,1287.50"/>
    </edge>
    <edge id=":C3_7" function="internal">
        <lane id=":C3_7_0" index="0" disallow="pedestrian" speed="60.00" length="23.00" width="3.50" shape="488.50,1293.75 511.50,1293.75"/>
        <lane id=":C3_7_1" index="1" disallow="pedestrian" speed="60.00" length="23.00" width="3.50" shape="488.50,1297.25 511.50,1297.25"/>
    </edge>
    <edge id=":D0_0" function="internal">
        <lane id=":D0_0_0" index="0" disallow="pedestrian" speed="6.08" length="7.66" width="3.50" shape="744.75,10.00 744.45,7.92 743.56,6.44 742.08,5.55 740.00,5.25"/>
    </edge>
    <edge id=":D0_1" function="internal">
        <lane id=":D0_1_0" index="0" disallow="pedestrian" speed="7.79" length="13.31" width="3.50" shape="748.25,10.00 747.73,6.39 746.19,3.81 743.61,2.27 740.00,1.75"/>
    </edge>
    <edge id=":D0_2" function="internal">
        <lane id=":D0_2_0" index="0" speed="10.40" length="24.59" width="3.50" shape="740.00,-5.25 746.67,-4.30 751.44,-1.44 754.30,3.33 755.25,10.00"/>
    </edge>
    <edge id=":D0_3" function="internal">
        <lane id=":D0_3_0" index="0" speed="9.19" length="18.95" width="3.50" shape="740.00,-1.75 745.14,-1.02 748.81,1.19 751.02,4.86 751.75,10.00"/>
    </edge>
    <edge id=":D1_0" function="internal">
        <lane id=":D1_0_0" index="0" disallow="pedestrian" speed="6.87" length="10.08" width="3.50" shape="744.75,444.50 744.36,441.77 743.19,439.81 741.23,438.64 738.50,438.25"/>
    </edge>
    <edge id=":D1_1" function="internal">
        <lane id=":D1_1_0" index="0" disallow="pedestrian" speed="60.00" length="23.00" width="3.50" shape="744.75,444.50 744.75,421.50"/>
        <lane id=":D1_1_1" index="1" disallow="pedestrian" speed="60.00" length="23.00" width="3.50" shape="748.25,444.50 748.25,421.50"/>
    </edge>
    <edge id=":D1_3" function="internal">
        <lane id=":D1_3_0" index="0" speed="60.00" length="23.00" width="3.50" shape="755.25,421.50 755.25,444.50"/>
        <lane id=":D1_3_1" index="1" speed="60.00" length="23.00" width="3.50" shape="751.75,421.50 751.75,444.50"/>
    </edge>
    <edge id=":D1_5" function="internal">
        <lane id=":D1_5_0" index="0" disallow="pedestrian" speed="9.73" length="21.37" width="3.50" shape="751.75,421.50 750.92,427.30 748.44,431.44 744.30,433.92 738.50,434.75"/>
    </edge>
    <edge id=":D1_6" function="internal">
        <lane id=":D1_6_0" index="0" disallow="pedestrian" speed="6.87" length="10.08" width="3.50" shape="738.50,427.75 741.23,427.36 743.19,426.19 744.36,424.23 744.75,421.50"/>
    </edge>