<routes>

	<vType id="vtype0" accel="2.6" decel="4.5" sigma="0.5" length="2.5" minGap="2.5" maxSpeed="70" departLane="0" departSpeed="max"/>
	<vType id="vtype1" accel="2.6" decel="4.5" sigma="0.5" length="2.5" minGap="2.5" maxSpeed="70" departLane="1" departSpeed="max"/>
	<vType id="vtype2" accel="2.6" decel="4.5" sigma="0.5" length="2.5" minGap="2.5" maxSpeed="70" departLane="2" departSpeed="max"/>

	<flow id="flow0" type="vtype0" begin="0" end="144" period="2.5" from="LS" to="RE" departLane="0" departSpeed="max"/>
	<flow id="flow1" type="vtype1" begin="0" end="144" period="2.5" from="LS" to="RE" departLane="1" departSpeed="max"/>
	<flow id="flow2" type="vtype2" begin="0" end="144" period="2.5" from="LS" to="RE" departLane="2" departSpeed="max"/>
	
	<flow id="flow4" type="vtype0" begin="0" end="144" period="2.5" from="RS" to="LE" departLane="0" departSpeed="max"/>
	<flow id="flow5" type="vtype1" begin="0" end="144" period="2.5" from="RS" to="LE" departLane="1" departSpeed="max"/>
	<flow id="flow6" type="vtype2" begin="0" end="144" period="2.5" from="RS" to="LE" departLane="2" departSpeed="max"/>
</routes>
