<?xml version="1.0" encoding="UTF-8"?>

<!-- generated on Sun 24 Mar 2019 01:19:33 PM UTC by Eclipse SUMO netedit Version 1.0.1
<configuration xmlns:xsi="http://www.w3.org/2001/XMLSchema-instance" xsi:noNamespaceSchemaLocation="http://sumo.dlr.de/xsd/netconvertConfiguration.xsd">

    <input>
        <sumo-net-file value="grid_fast.net.xml"/>
    </input>

    <output>
        <output-file value="grid_fast.net.xml"/>
    </output>

    <processing>
        <offset.disable-normalization value="true"/>
        <lefthand value="false"/>
    </processing>

    <junctions>
        <no-turnarounds value="true"/>
        <junctions.corner-detail value="5"/>
        <junctions.limit-turn-speed value="5.5"/>
        <rectangular-lane-cut value="false"/>
    </junctions>

    <pedestrian>
        <walkingareas value="false"/>
    </pedestrian>

</configuration>
-->

<net version="1.0" junctionCornerDetail="5" limitTurnSpeed="5.50" xmlns:xsi="http://www.w3.org/2001/XMLSchema-instance" xsi:noNamespaceSchemaLocation="http://sumo.dlr.de/xsd/net_file.xsd">

    <location netOffset="0.00,0.00" convBoundary="0.00,0.00,830.00,1379.00" origBoundary="0.00,0.00,830.00,1379.00" projParameter="!"/>

    <edge id=":A0_0" function="internal">
        <lane id=":A0_0_0" index="0" speed="6.62" length="9.27" width="3.50" shape="34.75,51.00 34.39,48.48 33.31,46.69 31.52,45.61 29.00,45.25"/>
    </edge>
    <edge id=":A0_1" function="internal">
        <lane id=":A0_1_0" index="0" speed="60.00" length="22.00" width="3.50" shape="34.75,51.00 34.75,29.00"/>
        <lane id=":A0_1_1" index="1" speed="60.00" length="22.00" width="3.50" shape="38.25,51.00 38.25,29.00"/>
    </edge>
    <edge id=":A0_3" function="internal">
        <lane id=":A0_3_0" index="0" speed="9.55" length="7.49" width="3.50" shape="38.25,51.00 39.05,45.42 40.00,43.83"/>
    </edge>
    <edge id=":A0_14" function="internal">
        <lane id=":A0_14_0" index="0" speed="9.55" length="13.08" width="3.50" shape="40.00,43.83 41.44,41.44 45.42,39.05 51.00,38.25"/>
    </edge>
    <edge id=":A0_4" function="internal">
        <lane id=":A0_4_0" index="0" speed="6.62" length="9.27" width="3.50" shape="51.00,45.25 48.48,45.61 46.69,46.69 45.61,48.48 45.25,51.00"/>
    </edge>
    <edge id=":A0_5" function="internal">
        <lane id=":A0_5_0" index="0" speed="60.00" length="22.00" width="3.50" shape="51.00,45.25 29.00,45.25"/>
        <lane id=":A0_5_1" index="1" speed="60.00" length="22.00" width="3.50" shape="51.00,41.75 29.00,41.75"/>
    </edge>
    <edge id=":A0_7" function="internal">
        <lane id=":A0_7_0" index="0" speed="9.55" length="20.56" width="3.50" shape="51.00,41.75 45.42,40.95 41.44,38.56 39.05,34.58 38.25,29.00"/>
    </edge>
    <edge id=":A0_8" function="internal">
        <lane id=":A0_8_0" index="0" speed="6.62" length="9.27" width="3.50" shape="45.25,29.00 45.61,31.52 46.69,33.31 48.48,34.39 51.00,34.75"/>
    </edge>
    <edge id=":A0_9" function="internal">
        <lane id=":A0_9_0" index="0" speed="60.00" length="22.00" width="3.50" shape="45.25,29.00 45.25,51.00"/>
        <lane id=":A0_9_1" index="1" speed="60.00" length="22.00" width="3.50" shape="41.75,29.00 41.75,51.00"/>
    </edge>
    <edge id=":A0_11" function="internal">
        <lane id=":A0_11_0" index="0" speed="60.00" length="22.00" width="3.50" shape="29.00,34.75 51.00,34.75"/>
        <lane id=":A0_11_1" index="1" speed="60.00" length="22.00" width="3.50" shape="29.00,38.25 51.00,38.25"/>
    </edge>
    <edge id=":A0_13" function="internal">
        <lane id=":A0_13_0" index="0" speed="9.55" length="20.56" width="3.50" shape="29.00,38.25 34.58,39.05 38.56,41.44 40.95,45.42 41.75,51.00"/>
    </edge>
    <edge id=":A1_0" function="internal">
        <lane id=":A1_0_0" index="0" speed="6.62" length="9.27" width="3.50" shape="34.75,484.00 34.39,481.48 33.31,479.69 31.52,478.61 29.00,478.25"/>
    </edge>
    <edge id=":A1_1" function="internal">
        <lane id=":A1_1_0" index="0" speed="60.00" length="22.00" width="3.50" shape="34.75,484.00 34.75,462.00"/>
        <lane id=":A1_1_1" index="1" speed="60.00" length="22.00" width="3.50" shape="38.25,484.00 38.25,462.00"/>
    </edge>
    <edge id=":A1_3" function="internal">
        <lane id=":A1_3_0" index="0" speed="9.55" length="7.49" width="3.50" shape="38.25,484.00 39.05,478.42 40.00,476.83"/>
    </edge>
    <edge id=":A1_16" function="internal">
        <lane id=":A1_16_0" index="0" speed="9.55" length="13.08" width="3.50" shape="40.00,476.83 41.44,474.44 45.42,472.05 51.00,471.25"/>
    </edge>
    <edge id=":A1_4" function="internal">
        <lane id=":A1_4_0" index="0" speed="6.62" length="9.27" width="3.50" shape="51.00,478.25 48.48,478.61 46.69,479.69 45.61,481.48 45.25,484.00"/>
    </edge>
    <edge id=":A1_5" function="internal">
        <lane id=":A1_5_0" index="0" speed="60.00" length="22.00" width="3.50" shape="51.00,478.25 29.00,478.25"/>
        <lane id=":A1_5_1" index="1" speed="60.00" length="22.00" width="3.50" shape="51.00,474.75 29.00,474.75"/>
    </edge>
    <edge id=":A1_7" function="internal">
        <lane id=":A1_7_0" index="0" speed="9.55" length="20.56" width="3.50" shape="51.00,474.75 45.42,473.95 41.44,471.56 39.05,467.58 38.25,462.00"/>
    </edge>
    <edge id=":A1_8" function="internal">
        <lane id=":A1_8_0" index="0" speed="6.62" length="9.27" width="3.50" shape="45.25,462.00 45.61,464.52 46.69,466.31 48.48,467.39 51.00,467.75"/>
    </edge>
    <edge id=":A1_9" function="internal">
        <lane id=":A1_9_0" index="0" speed="60.00" length="22.00" width="3.50" shape="45.25,462.00 45.25,484.00"/>
        <lane id=":A1_9_1" index="1" speed="60.00" length="22.00" width="3.50" shape="41.75,462.00 41.75,484.00"/>
    </edge>
    <edge id=":A1_11" function="internal">
        <lane id=":A1_11_0" index="0" speed="9.55" length="7.49" width="3.50" shape="41.75,462.00 40.95,467.58 40.00,469.17"/>
    </edge>
    <edge id=":A1_17" function="internal">
        <lane id=":A1_17_0" index="0" speed="9.55" length="13.08" width="3.50" shape="40.00,469.17 38.56,471.56 34.58,473.95 29.00,474.75"/>
    </edge>
    <edge id=":A1_12" function="internal">
        <lane id=":A1_12_0" index="0" speed="6.62" length="9.27" width="3.50" shape="29.00,467.75 31.52,467.39 33.31,466.31 34.39,464.52 34.75,462.00"/>
    </edge>
    <edge id=":A1_13" function="internal">
        <lane id=":A1_13_0" index="0" speed="60.00" length="22.00" width="3.50" shape="29.00,467.75 51.00,467.75"/>
        <lane id=":A1_13_1" index="1" speed="60.00" length="22.00" width="3.50" shape="29.00,471.25 51.00,471.25"/>
    </edge>
    <edge id=":A1_15" function="internal">
        <lane id=":A1_15_0" index="0" speed="9.55" length="20.56" width="3.50" shape="29.00,471.25 34.58,472.05 38.56,474.44 40.95,478.42 41.75,484.00"/>
    </edge>
    <edge id=":A2_0" function="internal">
        <lane id=":A2_0_0" index="0" speed="6.62" length="9.27" width="3.50" shape="34.75,917.00 34.39,914.48 33.31,912.69 31.52,911.61 29.00,911.25"/>
    </edge>
    <edge id=":A2_1" function="internal">
        <lane id=":A2_1_0" index="0" speed="60.00" length="22.00" width="3.50" shape="34.75,917.00 34.75,895.00"/>
        <lane id=":A2_1_1" index="1" speed="60.00" length="22.00" width="3.50" shape="38.25,917.00 38.25,895.00"/>
    </edge>
    <edge id=":A2_3" function="internal">
        <lane id=":A2_3_0" index="0" speed="9.55" length="7.49" width="3.50" shape="38.25,917.00 39.05,911.42 40.00,909.83"/>
    </edge>
    <edge id=":A2_16" function="internal">
        <lane id=":A2_16_0" index="0" speed="9.55" length="13.08" width="3.50" shape="40.00,909.83 41.44,907.44 45.42,905.05 51.00,904.25"/>
    </edge>
    <edge id=":A2_4" function="internal">
        <lane id=":A2_4_0" index="0" speed="6.62" length="9.27" width="3.50" shape="51.00,911.25 48.48,911.61 46.69,912.69 45.61,914.48 45.25,917.00"/>
    </edge>
    <edge id=":A2_5" function="internal">
        <lane id=":A2_5_0" index="0" speed="60.00" length="22.00" width="3.50" shape="51.00,911.25 29.00,911.25"/>
        <lane id=":A2_5_1" index="1" speed="60.00" length="22.00" width="3.50" shape="51.00,907.75 29.00,907.75"/>
    </edge>
    <edge id=":A2_7" function="internal">
        <lane id=":A2_7_0" index="0" speed="9.55" length="20.56" width="3.50" shape="51.00,907.75 45.42,906.95 41.44,904.56 39.05,900.58 38.25,895.00"/>
    </edge>
    <edge id=":A2_8" function="internal">
        <lane id=":A2_8_0" index="0" speed="6.62" length="9.27" width="3.50" shape="45.25,895.00 45.61,897.52 46.69,899.31 48.48,900.39 51.00,900.75"/>
    </edge>
    <edge id=":A2_9" function="internal">
        <lane id=":A2_9_0" index="0" speed="60.00" length="22.00" width="3.50" shape="45.25,895.00 45.25,917.00"/>
        <lane id=":A2_9_1" index="1" speed="60.00" length="22.00" width="3.50" shape="41.75,895.00 41.75,917.00"/>
    </edge>
    <edge id=":A2_11" function="internal">
        <lane id=":A2_11_0" index="0" speed="9.55" length="7.49" width="3.50" shape="41.75,895.00 40.95,900.58 40.00,902.17"/>
    </edge>
    <edge id=":A2_17" function="internal">
        <lane id=":A2_17_0" index="0" speed="9.55" length="13.08" width="3.50" shape="40.00,902.17 38.56,904.56 34.58,906.95 29.00,907.75"/>
    </edge>
    <edge id=":A2_12" function="internal">
        <lane id=":A2_12_0" index="0" speed="6.62" length="9.27" width="3.50" shape="29.00,900.75 31.52,900.39 33.31,899.31 34.39,897.52 34.75,895.00"/>
    </edge>
    <edge id=":A2_13" function="internal">
        <lane id=":A2_13_0" index="0" speed="60.00" length="22.00" width="3.50" shape="29.00,900.75 51.00,900.75"/>
        <lane id=":A2_13_1" index="1" speed="60.00" length="22.00" width="3.50" shape="29.00,904.25 51.00,904.25"/>
    </edge>
    <edge id=":A2_15" function="internal">
        <lane id=":A2_15_0" index="0" speed="9.55" length="20.56" width="3.50" shape="29.00,904.25 34.58,905.05 38.56,907.44 40.95,911.42 41.75,917.00"/>
    </edge>
    <edge id=":A3_0" function="internal">
        <lane id=":A3_0_0" index="0" speed="60.00" length="22.00" width="3.50" shape="34.75,1350.00 34.75,1328.00"/>
        <lane id=":A3_0_1" index="1" speed="60.00" length="22.00" width="3.50" shape="38.25,1350.00 38.25,1328.00"/>
    </edge>
    <edge id=":A3_2" function="internal">
        <lane id=":A3_2_0" index="0" speed="9.55" length="7.49" width="3.50" shape="38.25,1350.00 39.05,1344.42 40.00,1342.83"/>
    </edge>
    <edge id=":A3_14" function="internal">
        <lane id=":A3_14_0" index="0" speed="9.55" length="13.08" width="3.50" shape="40.00,1342.83 41.44,1340.44 45.42,1338.05 51.00,1337.25"/>
    </edge>
    <edge id=":A3_3" function="internal">
        <lane id=":A3_3_0" index="0" speed="6.62" length="9.27" width="3.50" shape="51.00,1344.25 48.48,1344.61 46.69,1345.69 45.61,1347.48 45.25,1350.00"/>
    </edge>
    <edge id=":A3_4" function="internal">
        <lane id=":A3_4_0" index="0" speed="60.00" length="22.00" width="3.50" shape="51.00,1344.25 29.00,1344.25"/>
        <lane id=":A3_4_1" index="1" speed="60.00" length="22.00" width="3.50" shape="51.00,1340.75 29.00,1340.75"/>
    </edge>
    <edge id=":A3_6" function="internal">
        <lane id=":A3_6_0" index="0" speed="9.55" length="20.56" width="3.50" shape="51.00,1340.75 45.42,1339.95 41.44,1337.56 39.05,1333.58 38.25,1328.00"/>
    </edge>
    <edge id=":A3_7" function="internal">
        <lane id=":A3_7_0" index="0" speed="6.62" length="9.27" width="3.50" shape="45.25,1328.00 45.61,1330.52 46.69,1332.31 48.48,1333.39 51.00,1333.75"/>
    </edge>
    <edge id=":A3_8" function="internal">
        <lane id=":A3_8_0" index="0" speed="60.00" length="22.00" width="3.50" shape="45.25,1328.00 45.25,1350.00"/>
        <lane id=":A3_8_1" index="1" speed="60.00" length="22.00" width="3.50" shape="41.75,1328.00 41.75,1350.00"/>
    </edge>
    <edge id=":A3_10" function="internal">
        <lane id=":A3_10_0" index="0" speed="9.55" length="7.49" width="3.50" shape="41.75,1328.00 40.95,1333.58 40.00,1335.17"/>
    </edge>
    <edge id=":A3_15" function="internal">
        <lane id=":A3_15_0" index="0" speed="9.55" length="13.08" width="3.50" shape="40.00,1335.17 38.56,1337.56 34.58,1339.95 29.00,1340.75"/>
    </edge>
    <edge id=":A3_11" function="internal">
        <lane id=":A3_11_0" index="0" speed="6.62" length="9.27" width="3.50" shape="29.00,1333.75 31.52,1333.39 33.31,1332.31 34.39,1330.52 34.75,1328.00"/>
    </edge>
    <edge id=":A3_12" function="internal">
        <lane id=":A3_12_0" index="0" speed="60.00" length="22.00" width="3.50" shape="29.00,1333.75 51.00,1333.75"/>
        <lane id=":A3_12_1" index="1" speed="60.00" length="22.00" width="3.50" shape="29.00,1337.25 51.00,1337.25"/>
    </edge>
    <edge id=":B0_0" function="internal">
        <lane id=":B0_0_0" index="0" speed="6.62" length="9.27" width="3.50" shape="284.75,51.00 284.39,48.48 283.31,46.69 281.52,45.61 279.00,45.25"/>
    </edge>
    <edge id=":B0_1" function="internal">
        <lane id=":B0_1_0" index="0" speed="60.00" length="22.00" width="3.50" shape="284.75,51.00 284.75,29.00"/>
        <lane id=":B0_1_1" index="1" speed="60.00" length="22.00" width="3.50" shape="288.25,51.00 288.25,29.00"/>
    </edge>
    <edge id=":B0_3" function="internal">
        <lane id=":B0_3_0" index="0" speed="9.55" length="7.49" width="3.50" shape="288.25,51.00 289.05,45.42 290.00,43.83"/>
    </edge>
    <edge id=":B0_16" function="internal">
        <lane id=":B0_16_0" index="0" speed="9.55" length="13.08" width="3.50" shape="290.00,43.83 291.44,41.44 295.42,39.05 301.00,38.25"/>
    </edge>
    <edge id=":B0_4" function="internal">
        <lane id=":B0_4_0" index="0" speed="6.62" length="9.27" width="3.50" shape="301.00,45.25 298.48,45.61 296.69,46.69 295.61,48.48 295.25,51.00"/>
    </edge>
    <edge id=":B0_5" function="internal">
        <lane id=":B0_5_0" index="0" speed="60.00" length="22.00" width="3.50" shape="301.00,45.25 279.00,45.25"/>
        <lane id=":B0_5_1" index="1" speed="60.00" length="22.00" width="3.50" shape="301.00,41.75 279.00,41.75"/>
    </edge>
    <edge id=":B0_7" function="internal">
        <lane id=":B0_7_0" index="0" speed="9.55" length="20.56" width="3.50" shape="301.00,41.75 295.42,40.95 291.44,38.56 289.05,34.58 288.25,29.00"/>
    </edge>
    <edge id=":B0_8" function="internal">
        <lane id=":B0_8_0" index="0" speed="6.62" length="9.27" width="3.50" shape="295.25,29.00 295.61,31.52 296.69,33.31 298.48,34.39 301.00,34.75"/>
    </edge>
    <edge id=":B0_9" function="internal">
        <lane id=":B0_9_0" index="0" speed="60.00" length="22.00" width="3.50" shape="295.25,29.00 295.25,51.00"/>
        <lane id=":B0_9_1" index="1" speed="60.00" length="22.00" width="3.50" shape="291.75,29.00 291.75,51.00"/>
    </edge>
    <edge id=":B0_11" function="internal">
        <lane id=":B0_11_0" index="0" speed="9.55" length="7.49" width="3.50" shape="291.75,29.00 290.95,34.58 290.00,36.17"/>
    </edge>
    <edge id=":B0_17" function="internal">
        <lane id=":B0_17_0" index="0" speed="9.55" length="13.08" width="3.50" shape="290.00,36.17 288.56,38.56 284.58,40.95 279.00,41.75"/>
    </edge>
    <edge id=":B0_12" function="internal">
        <lane id=":B0_12_0" index="0" speed="6.62" length="9.27" width="3.50" shape="279.00,34.75 281.52,34.39 283.31,33.31 284.39,31.52 284.75,29.00"/>
    </edge>
    <edge id=":B0_13" function="internal">
        <lane id=":B0_13_0" index="0" speed="60.00" length="22.00" width="3.50" shape="279.00,34.75 301.00,34.75"/>
        <lane id=":B0_13_1" index="1" speed="60.00" length="22.00" width="3.50" shape="279.00,38.25 301.00,38.25"/>
    </edge>
    <edge id=":B0_15" function="internal">
        <lane id=":B0_15_0" index="0" speed="9.55" length="20.56" width="3.50" shape="279.00,38.25 284.58,39.05 288.56,41.44 290.95,45.42 291.75,51.00"/>
    </edge>
    <edge id=":B1_0" function="internal">
        <lane id=":B1_0_0" index="0" speed="6.62" length="9.27" width="3.50" shape="284.75,484.00 284.39,481.48 283.31,479.69 281.52,478.61 279.00,478.25"/>
    </edge>
    <edge id=":B1_1" function="internal">
        <lane id=":B1_1_0" index="0" speed="60.00" length="22.00" width="3.50" shape="284.75,484.00 284.75,462.00"/>
        <lane id=":B1_1_1" index="1" speed="60.00" length="22.00" width="3.50" shape="288.25,484.00 288.25,462.00"/>
    </edge>
    <edge id=":B1_3" function="internal">
        <lane id=":B1_3_0" index="0" speed="9.55" length="7.49" width="3.50" shape="288.25,484.00 289.05,478.42 290.00,476.83"/>
    </edge>
    <edge id=":B1_16" function="internal">
        <lane id=":B1_16_0" index="0" speed="9.55" length="13.08" width="3.50" shape="290.00,476.83 291.44,474.44 295.42,472.05 301.00,471.25"/>
    </edge>
    <edge id=":B1_4" function="internal">
        <lane id=":B1_4_0" index="0" speed="6.62" length="9.27" width="3.50" shape="301.00,478.25 298.48,478.61 296.69,479.69 295.61,481.48 295.25,484.00"/>
    </edge>
    <edge id=":B1_5" function="internal">
        <lane id=":B1_5_0" index="0" speed="60.00" length="22.00" width="3.50" shape="301.00,478.25 279.00,478.25"/>
        <lane id=":B1_5_1" index="1" speed="60.00" length="22.00" width="3.50" shape="301.00,474.75 279.00,474.75"/>
    </edge>
    <edge id=":B1_7" function="internal">
        <lane id=":B1_7_0" index="0" speed="9.55" length="20.56" width="3.50" shape="301.00,474.75 295.42,473.95 291.44,471.56 289.05,467.58 288.25,462.00"/>
    </edge>
    <edge id=":B1_8" function="internal">
        <lane id=":B1_8_0" index="0" speed="6.62" length="9.27" width="3.50" shape="295.25,462.00 295.61,464.52 296.69,466.31 298.48,467.39 301.00,467.75"/>
    </edge>
    <edge id=":B1_9" function="internal">
        <lane id=":B1_9_0" index="0" speed="60.00" length="22.00" width="3.50" shape="295.25,462.00 295.25,484.00"/>
        <lane id=":B1_9_1" index="1" speed="60.00" length="22.00" width="3.50" shape="291.75,462.00 291.75,484.00"/>
    </edge>
    <edge id=":B1_11" function="internal">
        <lane id=":B1_11_0" index="0" speed="9.55" length="7.49" width="3.50" shape="291.75,462.00 290.95,467.58 290.00,469.17"/>
    </edge>
    <edge id=":B1_17" function="internal">
        <lane id=":B1_17_0" index="0" speed="9.55" length="13.08" width="3.50" shape="290.00,469.17 288.56,471.56 284.58,473.95 279.00,474.75"/>
    </edge>
    <edge id=":B1_12" function="internal">
        <lane id=":B1_12_0" index="0" speed="6.62" length="9.27" width="3.50" shape="279.00,467.75 281.52,467.39 283.31,466.31 284.39,464.52 284.75,462.00"/>
    </edge>
    <edge id=":B1_13" function="internal">
        <lane id=":B1_13_0" index="0" speed="60.00" length="22.00" width="3.50" shape="279.00,467.75 301.00,467.75"/>
        <lane id=":B1_13_1" index="1" speed="60.00" length="22.00" width="3.50" shape="279.00,471.25 301.00,471.25"/>
    </edge>
    <edge id=":B1_15" function="internal">
        <lane id=":B1_15_0" index="0" speed="9.55" length="20.56" width="3.50" shape="279.00,471.25 284.58,472.05 288.56,474.44 290.95,478.42 291.75,484.00"/>
    </edge>
    <edge id=":B2_0" function="internal">
        <lane id=":B2_0_0" index="0" speed="6.62" length="9.27" width="3.50" shape="284.75,917.00 284.39,914.48 283.31,912.69 281.52,911.61 279.00,911.25"/>
    </edge>
    <edge id=":B2_1" function="internal">
        <lane id=":B2_1_0" index="0" speed="60.00" length="22.00" width="3.50" shape="284.75,917.00 284.75,895.00"/>
        <lane id=":B2_1_1" index="1" speed="60.00" length="22.00" width="3.50" shape="288.25,917.00 288.25,895.00"/>
    </edge>
    <edge id=":B2_3" function="internal">
        <lane id=":B2_3_0" index="0" speed="9.55" length="7.49" width="3.50" shape="288.25,917.00 289.05,911.42 290.00,909.83"/>
    </edge>
    <edge id=":B2_16" function="internal">
        <lane id=":B2_16_0" index="0" speed="9.55" length="13.08" width="3.50" shape="290.00,909.83 291.44,907.44 295.42,905.05 301.00,904.25"/>
    </edge>
    <edge id=":B2_4" function="internal">
        <lane id=":B2_4_0" index="0" speed="6.62" length="9.27" width="3.50" shape="301.00,911.25 298.48,911.61 296.69,912.69 295.61,914.48 295.25,917.00"/>
    </edge>
    <edge id=":B2_5" function="internal">
        <lane id=":B2_5_0" index="0" speed="60.00" length="22.00" width="3.50" shape="301.00,911.25 279.00,911.25"/>
        <lane id=":B2_5_1" index="1" speed="60.00" length="22.00" width="3.50" shape="301.00,907.75 279.00,907.75"/>
    </edge>
    <edge id=":B2_7" function="internal">
        <lane id=":B2_7_0" index="0" speed="9.55" length="20.56" width="3.50" shape="301.00,907.75 295.42,906.95 291.44,904.56 289.05,900.58 288.25,895.00"/>
    </edge>
    <edge id=":B2_8" function="internal">
        <lane id=":B2_8_0" index="0" speed="6.62" length="9.27" width="3.50" shape="295.25,895.00 295.61,897.52 296.69,899.31 298.48,900.39 301.00,900.75"/>
    </edge>
    <edge id=":B2_9" function="internal">
        <lane id=":B2_9_0" index="0" speed="60.00" length="22.00" width="3.50" shape="295.25,895.00 295.25,917.00"/>
        <lane id=":B2_9_1" index="1" speed="60.00" length="22.00" width="3.50" shape="291.75,895.00 291.75,917.00"/>
    </edge>
    <edge id=":B2_11" function="internal">
        <lane id=":B2_11_0" index="0" speed="9.55" length="7.49" width="3.50" shape="291.75,895.00 290.95,900.58 290.00,902.17"/>
    </edge>
    <edge id=":B2_17" function="internal">
        <lane id=":B2_17_0" index="0" speed="9.55" length="13.08" width="3.50" shape="290.00,902.17 288.56,904.56 284.58,906.95 279.00,907.75"/>
    </edge>
    <edge id=":B2_12" function="internal">
        <lane id=":B2_12_0" index="0" speed="6.62" length="9.27" width="3.50" shape="279.00,900.75 281.52,900.39 283.31,899.31 284.39,897.52 284.75,895.00"/>
    </edge>
    <edge id=":B2_13" function="internal">
        <lane id=":B2_13_0" index="0" speed="60.00" length="22.00" width="3.50" shape="279.00,900.75 301.00,900.75"/>
        <lane id=":B2_13_1" index="1" speed="60.00" length="22.00" width="3.50" shape="279.00,904.25 301.00,904.25"/>
    </edge>
    <edge id=":B2_15" function="internal">
        <lane id=":B2_15_0" index="0" speed="9.55" length="20.56" width="3.50" shape="279.00,904.25 284.58,905.05 288.56,907.44 290.95,911.42 291.75,917.00"/>
    </edge>
    <edge id=":B3_0" function="internal">
        <lane id=":B3_0_0" index="0" speed="6.62" length="9.27" width="3.50" shape="284.75,1350.00 284.39,1347.48 283.31,1345.69 281.52,1344.61 279.00,1344.25"/>
    </edge>
    <edge id=":B3_1" function="internal">
        <lane id=":B3_1_0" index="0" speed="60.00" length="22.00" width="3.50" shape="284.75,1350.00 284.75,1328.00"/>
        <lane id=":B3_1_1" index="1" speed="60.00" length="22.00" width="3.50" shape="288.25,1350.00 288.25,1328.00"/>
    </edge>
    <edge id=":B3_3" function="internal">
        <lane id=":B3_3_0" index="0" speed="9.55" length="7.49" width="3.50" shape="288.25,1350.00 289.05,1344.42 290.00,1342.83"/>
    </edge>
    <edge id=":B3_16" function="internal">
        <lane id=":B3_16_0" index="0" speed="9.55" length="13.08" width="3.50" shape="290.00,1342.83 291.44,1340.44 295.42,1338.05 301.00,1337.25"/>
    </edge>
    <edge id=":B3_4" function="internal">
        <lane id=":B3_4_0" index="0" speed="6.62" length="9.27" width="3.50" shape="301.00,1344.25 298.48,1344.61 296.69,1345.69 295.61,1347.48 295.25,1350.00"/>
    </edge>
    <edge id=":B3_5" function="internal">
        <lane id=":B3_5_0" index="0" speed="60.00" length="22.00" width="3.50" shape="301.00,1344.25 279.00,1344.25"/>
        <lane id=":B3_5_1" index="1" speed="60.00" length="22.00" width="3.50" shape="301.00,1340.75 279.00,1340.75"/>
    </edge>
    <edge id=":B3_7" function="internal">
        <lane id=":B3_7_0" index="0" speed="9.55" length="20.56" width="3.50" shape="301.00,1340.75 295.42,1339.95 291.44,1337.56 289.05,1333.58 288.25,1328.00"/>
    </edge>
    <edge id=":B3_8" function="internal">
        <lane id=":B3_8_0" index="0" speed="6.62" length="9.27" width="3.50" shape="295.25,1328.00 295.61,1330.52 296.69,1332.31 298.48,1333.39 301.00,1333.75"/>
    </edge>
    <edge id=":B3_9" function="internal">
        <lane id=":B3_9_0" index="0" speed="60.00" length="22.00" width="3.50" shape="295.25,1328.00 295.25,1350.00"/>
        <lane id=":B3_9_1" index="1" speed="60.00" length="22.00" width="3.50" shape="291.75,1328.00 291.75,1350.00"/>
    </edge>
    <edge id=":B3_11" function="internal">
        <lane id=":B3_11_0" index="0" speed="9.55" length="7.49" width="3.50" shape="291.75,1328.00 290.95,1333.58 290.00,1335.17"/>
    </edge>
    <edge id=":B3_17" function="internal">
        <lane id=":B3_17_0" index="0" speed="9.55" length="13.08" width="3.50" shape="290.00,1335.17 288.56,1337.56 284.58,1339.95 279.00,1340.75"/>
    </edge>
    <edge id=":B3_12" function="internal">
        <lane id=":B3_12_0" index="0" speed="6.62" length="9.27" width="3.50" shape="279.00,1333.75 281.52,1333.39 283.31,1332.31 284.39,1330.52 284.75,1328.00"/>
    </edge>
    <edge id=":B3_13" function="internal">
        <lane id=":B3_13_0" index="0" speed="60.00" length="22.00" width="3.50" shape="279.00,1333.75 301.00,1333.75"/>
        <lane id=":B3_13_1" index="1" speed="60.00" length="22.00" width="3.50" shape="279.00,1337.25 301.00,1337.25"/>
    </edge>
    <edge id=":B3_15" function="internal">
        <lane id=":B3_15_0" index="0" speed="9.55" length="20.56" width="3.50" shape="279.00,1337.25 284.58,1338.05 288.56,1340.44 290.95,1344.42 291.75,1350.00"/>
    </edge>
    <edge id=":C0_0" function="internal">
        <lane id=":C0_0_0" index="0" speed="6.62" length="9.27" width="3.50" shape="534.75,51.00 534.39,48.48 533.31,46.69 531.52,45.61 529.00,45.25"/>
    </edge>
    <edge id=":C0_1" function="internal">
        <lane id=":C0_1_0" index="0" speed="60.00" length="22.00" width="3.50" shape="534.75,51.00 534.75,29.00"/>
        <lane id=":C0_1_1" index="1" speed="60.00" length="22.00" width="3.50" shape="538.25,51.00 538.25,29.00"/>
    </edge>
    <edge id=":C0_3" function="internal">
        <lane id=":C0_3_0" index="0" speed="9.55" length="7.49" width="3.50" shape="538.25,51.00 539.05,45.42 540.00,43.83"/>
    </edge>
    <edge id=":C0_16" function="internal">
        <lane id=":C0_16_0" index="0" speed="9.55" length="13.08" width="3.50" shape="540.00,43.83 541.44,41.44 545.42,39.05 551.00,38.25"/>
    </edge>
    <edge id=":C0_4" function="internal">
        <lane id=":C0_4_0" index="0" speed="6.62" length="9.27" width="3.50" shape="551.00,45.25 548.48,45.61 546.69,46.69 545.61,48.48 545.25,51.00"/>
    </edge>
    <edge id=":C0_5" function="internal">
        <lane id=":C0_5_0" index="0" speed="60.00" length="22.00" width="3.50" shape="551.00,45.25 529.00,45.25"/>
        <lane id=":C0_5_1" index="1" speed="60.00" length="22.00" width="3.50" shape="551.00,41.75 529.00,41.75"/>
    </edge>
    <edge id=":C0_7" function="internal">
        <lane id=":C0_7_0" index="0" speed="9.55" length="20.56" width="3.50" shape="551.00,41.75 545.42,40.95 541.44,38.56 539.05,34.58 538.25,29.00"/>
    </edge>
    <edge id=":C0_8" function="internal">
        <lane id=":C0_8_0" index="0" speed="6.62" length="9.27" width="3.50" shape="545.25,29.00 545.61,31.52 546.69,33.31 548.48,34.39 551.00,34.75"/>
    </edge>
    <edge id=":C0_9" function="internal">
        <lane id=":C0_9_0" index="0" speed="60.00" length="22.00" width="3.50" shape="545.25,29.00 545.25,51.00"/>
        <lane id=":C0_9_1" index="1" speed="60.00" length="22.00" width="3.50" shape="541.75,29.00 541.75,51.00"/>
    </edge>
    <edge id=":C0_11" function="internal">
        <lane id=":C0_11_0" index="0" speed="9.55" length="7.49" width="3.50" shape="541.75,29.00 540.95,34.58 540.00,36.17"/>
    </edge>
    <edge id=":C0_17" function="internal">
        <lane id=":C0_17_0" index="0" speed="9.55" length="13.08" width="3.50" shape="540.00,36.17 538.56,38.56 534.58,40.95 529.00,41.75"/>
    </edge>
    <edge id=":C0_12" function="internal">
        <lane id=":C0_12_0" index="0" speed="6.62" length="9.27" width="3.50" shape="529.00,34.75 531.52,34.39 533.31,33.31 534.39,31.52 534.75,29.00"/>
    </edge>
    <edge id=":C0_13" function="internal">
        <lane id=":C0_13_0" index="0" speed="60.00" length="22.00" width="3.50" shape="529.00,34.75 551.00,34.75"/>
        <lane id=":C0_13_1" index="1" speed="60.00" length="22.00" width="3.50" shape="529.00,38.25 551.00,38.25"/>
    </edge>
    <edge id=":C0_15" function="internal">
        <lane id=":C0_15_0" index="0" speed="9.55" length="20.56" width="3.50" shape="529.00,38.25 534.58,39.05 538.56,41.44 540.95,45.42 541.75,51.00"/>
    </edge>
    <edge id=":C1_0" function="internal">
        <lane id=":C1_0_0" index="0" speed="6.62" length="9.27" width="3.50" shape="534.75,484.00 534.39,481.48 533.31,479.69 531.52,478.61 529.00,478.25"/>
    </edge>
    <edge id=":C1_1" function="internal">
        <lane id=":C1_1_0" index="0" speed="60.00" length="22.00" width="3.50" shape="534.75,484.00 534.75,462.00"/>
        <lane id=":C1_1_1" index="1" speed="60.00" length="22.00" width="3.50" shape="538.25,484.00 538.25,462.00"/>
    </edge>
    <edge id=":C1_3" function="internal">
        <lane id=":C1_3_0" index="0" speed="9.55" length="7.49" width="3.50" shape="538.25,484.00 539.05,478.42 540.00,476.83"/>
    </edge>
    <edge id=":C1_16" function="internal">
        <lane id=":C1_16_0" index="0" speed="9.55" length="13.08" width="3.50" shape="540.00,476.83 541.44,474.44 545.42,472.05 551.00,471.25"/>
    </edge>
    <edge id=":C1_4" function="internal">
        <lane id=":C1_4_0" index="0" speed="6.62" length="9.27" width="3.50" shape="551.00,478.25 548.48,478.61 546.69,479.69 545.61,481.48 545.25,484.00"/>
    </edge>
    <edge id=":C1_5" function="internal">
        <lane id=":C1_5_0" index="0" speed="60.00" length="22.00" width="3.50" shape="551.00,478.25 529.00,478.25"/>