<!-- generated with cutRoutes.py for lust-filt.net.xml from ['buslines.rou.xml'] -->
<routes xmlns:xsi="http://www.w3.org/2001/XMLSchema-instance" xsi:noNamespaceSchemaLocation="http://sumo.dlr.de/xsd/routes_file.xsd">
    <vehicle arrivalPos="-1.00" color="green" depart="21.00" departLane="best" departPos="0.00" id="AVL---_CN_1_0" type="bus">
        <route edges="--31272#8 --31272#7 -30892#17 -31320#1 -31320#2"/>
    </vehicle>
    <vehicle arrivalPos="-1.00" color="green" depart="299.68" departLane="best" departPos="0.00" id="AVL---_CN_3_0" type="bus">
        <route edges="--30892#20 --30892#19 --30892#18 --30892#17 --30892#16 --30892#15 --30892#14 --30892#13 --30892#12 --30892#11 --30892#10 --30892#9 --30892#8 --30892#7 --30892#6 -32750#10"/>
    </vehicle>
    <vehicle arrivalPos="-1.00" color="green" depart="373.15" departLane="best" departPos="0.00" id="AVL---_CN_3_1" type="bus">
        <route edges="--32750#10 -30892#6 -30892#7 -30892#8 -30892#9 -30892#10 -30892#11 -30892#12 -30892#13 -30892#14 -30892#15 -30892#16 -30892#17 -30892#18 -30892#19 -30892#20"/>
    </vehicle>
    <vehicle arrivalPos="-1.00" color="green" depart="1168.48" departLane="best" departPos="0.00" id="AVL---_CN_1_1" type="bus">
        <route edges="-31272#5 -31272#6 -31272#7 -31272#8"/>
    </vehicle>
    <vehicle arrivalPos="-1.00" color="green" depart="1821.00" departLane="best" departPos="0.00" id="AVL---_CN_1_2" type="bus">
        <route edges="--31272#8 --31272#7 -30892#17 -31320#1 -31320#2"/>
    </vehicle>
    <vehicle arrivalPos="-1.00" color="green" depart="2099.68" departLane="best" departPos="0.00" id="AVL---_CN_3_2" type="bus">
        <route edges="--30892#20 --30892#19 --30892#18 --30892#17 --30892#16 --30892#15 --30892#14 --30892#13 --30892#12 --30892#11 --30892#10 --30892#9 --30892#8 --30892#7 --30892#6 -32750#10"/>
    </vehicle>
    <vehicle arrivalPos="-1.00" color="green" depart="2173.15" departLane="best" departPos="0.00" id="AVL---_CN_3_3" type="bus">
        <route edges="--32750#10 -30892#6 -30892#7 -30892#8 -30892#9 -30892#10 -30892#11 -30892#12 -30892#13 -30892#14 -30892#15 -30892#16 -30892#17 -30892#18 -30892#19 -30892#20"/>
    </vehicle>
    <vehicle arrivalPos="-1.00" color="green" depart="2968.48" departLane="best" departPos="0.00" id="AVL---_CN_1_3" type="bus">
        <route edges="-31272#5 -31272#6 -31272#7 -31272#8"/>
    </vehicle>
    <vehicle arrivalPos="-1.00" color="green" depart="3621.00" departLane="best" departPos="0.00" id="AVL---_CN_1_4" type="bus">
        <route edges="--31272#8 --31272#7 -30892#17 -31320#1 -31320#2"/>
    </vehicle>
    <vehicle arrivalPos="-1.00" color="green" depart="3899.68" departLane="best" departPos="0.00" id="AVL---_CN_3_4" type="bus">
        <route edges="--30892#20 --30892#19 --30892#18 --30892#17 --30892#16 --30892#15 --30892#14 --30892#13 --30892#12 --30892#11 --30892#10 --30892#9 --30892#8 --30892#7 --30892#6 -32750#10"/>
    </vehicle>
    <vehicle arrivalPos="-1.00" color="green" depart="3973.15" departLane="best" departPos="0.00" id="AVL---_CN_3_5" type="bus">
        <route edges="--32750#10 -30892#6 -30892#7 -30892#8 -30892#9 -30892#10 -30892#11 -30892#12 -30892#13 -30892#14 -30892#15 -30892#16 -30892#17 -30892#18 -30892#19 -30892#20"/>
    </vehicle>
    <vehicle arrivalPos="-1.00" color="green" depart="4768.48" departLane="best" departPos="0.00" id="AVL---_CN_1_5" type="bus">
        <route edges="-31272#5 -31272#6 -31272#7 -31272#8"/>
    </vehicle>
    <vehicle arrivalPos="-1.00" color="green" depart="5421.00" departLane="best" departPos="0.00" id="AVL---_CN_1_6" type="bus">
        <route edges="--31272#8 --31272#7 -30892#17 -31320#1 -31320#2"/>
    </vehicle>
    <vehicle arrivalPos="-1.00" color="green" depart="5699.68" departLane="best" departPos="0.00" id="AVL---_CN_3_6" type="bus">
        <route edges="--30892#20 --30892#19 --30892#18 --30892#17 --30892#16 --30892#15 --30892#14 --30892#13 --30892#12 --30892#11 --30892#10 --30892#9 --30892#8 --30892#7 --30892#6 -32750#10"/>
    </vehicle>
    <vehicle arrivalPos="-1.00" color="green" depart="5773.15" departLane="best" departPos="0.00" id="AVL---_CN_3_7" type="bus">
        <route edges="--32750#10 -30892#6 -30892#7 -30892#8 -30892#9 -30892#10 -30892#11 -30892#12 -30892#13 -30892#14 -30892#15 -30892#16 -30892#17 -30892#18 -30892#19 -30892#20"/>
    </vehicle>
    <vehicle arrivalPos="-1.00" color="green" depart="6568.48" departLane="best" departPos="0.00" id="AVL---_CN_1_7" type="bus">
        <route edges="-31272#5 -31272#6 -31272#7 -31272#8"/>
    </vehicle>
    <vehicle arrivalPos="-1.00" color="green" depart="7221.00" departLane="best" departPos="0.00" id="AVL---_CN_1_8" type="bus">
        <route edges="--31272#8 --31272#7 -30892#17 -31320#1 -31320#2"/>
    </vehicle>
    <vehicle arrivalPos="-1.00" color="green" depart="7499.68" departLane="best" departPos="0.00" id="AVL---_CN_3_8" type="bus">
        <route edges="--30892#20 --30892#19 --30892#18 --30892#17 --30892#16 --30892#15 --30892#14 --30892#13 --30892#12 --30892#11 --30892#10 --30892#9 --30892#8 --30892#7 --30892#6 -32750#10"/>
    </vehicle>
    <vehicle arrivalPos="-1.00" color="green" depart="7573.15" departLane="best" departPos="0.00" id="AVL---_CN_3_9" type="bus">
        <route edges="--32750#10 -30892#6 -30892#7 -30892#8 -30892#9 -30892#10 -30892#11 -30892#12 -30892#13 -30892#14 -30892#15 -30892#16 -30892#17 -30892#18 -30892#19 -30892#20"/>
    </vehicle>
    <vehicle arrivalPos="-1.00" color="green" depart="8368.48" departLane="best" departPos="0.00" id="AVL---_CN_1_9" type="bus">
        <route edges="-31272#5 -31272#6 -31272#7 -31272#8"/>
    </vehicle>
    <vehicle arrivalPos="-1.00" color="green" depart="9021.00" departLane="best" departPos="0.00" id="AVL---_CN_1_10" type="bus">
        <route edges="--31272#8 --31272#7 -30892#17 -31320#1 -31320#2"/>
    </vehicle>
    <vehicle arrivalPos="-1.00" color="green" depart="9299.68" departLane="best" departPos="0.00" id="AVL---_CN_3_10" type="bus">
        <route edges="--30892#20 --30892#19 --30892#18 --30892#17 --30892#16 --30892#15 --30892#14 --30892#13 --30892#12 --30892#11 --30892#10 --30892#9 --30892#8 --30892#7 --30892#6 -32750#10"/>
    </vehicle>
    <vehicle arrivalPos="-1.00" color="green" depart="9373.15" departLane="best" departPos="0.00" id="AVL---_CN_3_11" type="bus">
        <route edges="--32750#10 -30892#6 -30892#7 -30892#8 -30892#9 -30892#10 -30892#11 -30892#12 -30892#13 -30892#14 -30892#15 -30892#16 -30892#17 -30892#18 -30892#19 -30892#20"/>
    </vehicle>
    <vehicle arrivalPos="-1.00" color="green" depart="10168.48" departLane="best" departPos="0.00" id="AVL---_CN_1_11" type="bus">
        <route edges="-31272#5 -31272#6 -31272#7 -31272#8"/>
    </vehicle>
    <vehicle arrivalPos="-1.00" color="green" depart="10821.00" departLane="best" departPos="0.00" id="AVL---_CN_1_12" type="bus">
        <route edges="--31272#8 --31272#7 -30892#17 -31320#1 -31320#2"/>
    </vehicle>
    <vehicle arrivalPos="-1.00" color="green" depart="11099.68" departLane="best" departPos="0.00" id="AVL---_CN_3_12" type="bus">
        <route edges="--30892#20 --30892#19 --30892#18 --30892#17 --30892#16 --30892#15 --30892#14 --30892#13 --30892#12 --30892#11 --30892#10 --30892#9 --30892#8 --30892#7 --30892#6 -32750#10"/>
    </vehicle>
    <vehicle arrivalPos="-1.00" color="green" depart="11173.15" departLane="best" departPos="0.00" id="AVL---_CN_3_13" type="bus">
        <route edges="--32750#10 -30892#6 -30892#7 -30892#8 -30892#9 -30892#10 -30892#11 -30892#12 -30892#13 -30892#14 -30892#15 -30892#16 -30892#17 -30892#18 -30892#19 -30892#20"/>
    </vehicle>
    <vehicle arrivalPos="-1.00" color="green" depart="11968.48" departLane="best" departPos="0.00" id="AVL---_CN_1_13" type="bus">
        <route edges="-31272#5 -31272#6 -31272#7 -31272#8"/>
    </vehicle>
    <vehicle arrivalPos="-1.00" color="green" depart="12621.00" departLane="best" departPos="0.00" id="AVL---_CN_1_14" type="bus">
        <route edges="--31272#8 --31272#7 -30892#17 -31320#1 -31320#2"/>
    </vehicle>
    <vehicle arrivalPos="-1.00" color="green" depart="12899.68" departLane="best" departPos="0.00" id="AVL---_CN_3_14" type="bus">
        <route edges="--30892#20 --30892#19 --30892#18 --30892#17 --30892#16 --30892#15 --30892#14 --30892#13 --30892#12 --30892#11 --30892#10 --30892#9 --30892#8 --30892#7 --30892#6 -32750#10"/>
    </vehicle>
    <vehicle arrivalPos="-1.00" color="green" depart="12973.15" departLane="best" departPos="0.00" id="AVL---_CN_3_15" type="bus">
        <route edges="--32750#10 -30892#6 -30892#7 -30892#8 -30892#9 -30892#10 -30892#11 -30892#12 -30892#13 -30892#14 -30892#15 -30892#16 -30892#17 -30892#18 -30892#19 -30892#20"/>
    </vehicle>
    <vehicle arrivalPos="-1.00" color="green" depart="13768.48" departLane="best" departPos="0.00" id="AVL---_CN_1_15" type="bus">
        <route edges="-31272#5 -31272#6 -31272#7 -31272#8"/>
    </vehicle>
    <vehicle arrivalPos="-1.00" color="green" depart="14401.00" departLane="best" departPos="0.00" id="AVL---_12_0" type="bus">
        <route edges="--30684#2 -30742#0 -30742#1 -30742#2 --30872#6 --30872#5 --30872#4 --30872#3 --30872#2 --30872#1 --30872#0 -31992#5 --31610#5 --31610#4 --31610#3 --31610#2 --31610#1 --31610#0 -30892#5 -32750#10"/>
    </vehicle>
    <vehicle arrivalPos="-1.00" color="green" depart="14407.00" departLane="best" departPos="0.00" id="AVL---_1_1" type="bus">
        <route edges="--31272#8 --31272#7 --31272#6 --31272#5"/>
    </vehicle>
    <vehicle arrivalPos="-1.00" color="green" depart="14421.00" departLane="best" departPos="0.00" id="AVL---_CN_1_16" type="bus">
        <route edges="--31272#8 --31272#7 -30892#17 -31320#1 -31320#2"/>
    </vehicle>
    <vehicle arrivalPos="-1.00" color="green" depart="14423.00" departLane="best" departPos="0.00" id="AVL---_24_0" type="bus">
        <route edges="--31272#8 --31272#7 -30892#17 -30892#18 -30892#19 -30892#20"/>
    </vehicle>
    <vehicle arrivalPos="-1.00" color="green" depart="14426.00" departLane="best" departPos="0.00" id="AVL---_17_1" type="bus">
        <route edges="--31272#8 --31272#7 --30892#16 --30892#15 --30892#14 --30892#13 --30892#12 --30892#11 --30892#10 --32924#8 --32924#7"/>
    </vehicle>
    <vehicle arrivalPos="-1.00" color="green" depart="14449.17" departLane="best" departPos="0.00" id="AVL---_15_1" type="bus">
        <route edges="-30704 --32664#0 --31118#2 --31118#1 --31118#0 -32784#2 --32064#2 --32064#1 --32064#0 -32788#4 -32788#1 -32788#2 -30542#0 --30872#11 --31272#7 --30892#16 --32270#3 --30842#0 -31564#1 -31602#1 -31602#2 -31602#3 -30842#4 --30418#5 --30418#4 --30418#3 -32786#3 -32786#4 -32786#5 --30892#10 --30892#9 --30892#8 --30892#7 --30892#6 -32750#10"/>
    </vehicle>
    <vehicle arrivalPos="-1.00" color="green" depart="14453.61" departLane="best" departPos="0.00" id="AVL---_17_0" type="bus">
        <route edges="--32750#10 -30892#6 -30892#7 -30892#8 -30892#9 -30892#10 -30892#11 -30892#12 -30892#13 -30892#14 -30892#15 -30892#16 -31272#7 -31272#8"/>
    </vehicle>
    <vehicle arrivalPos="-1.00" color="green" depart="14466.22" departLane="best" departPos="0.00" id="AVL---_3_1" type="bus">
        <route edges="--30646#4 --30646#3 --30646#2 --30646#1 -31056#2 -31056#3 -30962#1 -30962#2 --31834#2"/>
    </vehicle>
    <vehicle arrivalPos="-1.00" color="green" depart="14488.33" departLane="best" departPos="0.00" id="AVL---_14_1" type="bus">
        <route edges="--30892#20 --30892#19 --30892#18 --30892#17 --31272#6 --31272#5"/>
    </vehicle>
    <vehicle arrivalPos="-1.00" color="green" depart="14516.29" departLane="best" departPos="0.00" id="AVL---_8_0" type="bus">
        <route edges="-31834#2 -30256#0 --31812 -30582#0 -30582#1 --31152#1 --31152#0 -32160#1 -32160#2 -32160#3 --31992#5 --31992#4 --31992#3 --31992#2 --31992#1 --31992#0 --32776#5 --32776#4 --32776#3 --32776#2 -31940#5"/>
    </vehicle>
    <vehicle arrivalPos="-1.00" color="green" depart="14522.29" departLane="best" departPos="0.00" id="AVL---_J2_0" type="bus">
        <route edges="-31834#2 -30256#0 --31952#18 --31952#17"/>
    </vehicle>
    <vehicle arrivalPos="-1.00" color="green" depart="14584.45" departLane="best" departPos="0.00" id="AVL---_24_1" type="bus">
        <route edges="--30892#20 --30892#19 --30892#18 --30892#17 -31272#7 -31272#8"/>
    </vehicle>
    <vehicle arrivalPos="-1.00" color="green" depart="14588.34" departLane="best" departPos="0.00" id="AVL---_4_0" type="bus">
        <route edges="--30892#20 --30892#19 --30892#18 -31320#1 -31320#2"/>
    </vehicle>
    <vehicle arrivalPos="-1.00" color="green" depart="14637.45" departLane="best" departPos="0.00" id="AVL---_J2_1" type="bus">
        <route edges="-31952#17 -31952#18 --30256#0 --31834#2"/>
    </vehicle>
    <vehicle arrivalPos="-1.00" color="green" depart="14675.29" departLane="best" departPos="0.00" id="AVL---_7_0" type="bus">
        <route edges="-31496#9 -31496#10 -31496#11 -31496#12 -31496#13 -31496#14 -32750#0 -32750#1 -32750#2 -32750#3 --32924#14 --32924#13 --32924#12 --32924#11 --32924#10 --32924#9 --30892#9 --30892#8 --30892#7 --30892#6 -32750#10"/>
    </vehicle>
    <vehicle arrivalPos="-1.00" color="green" depart="14699.68" departLane="best" departPos="0.00" id="AVL---_CN_3_16" type="bus">
        <route edges="--30892#20 --30892#19 --30892#18 --30892#17 --30892#16 --30892#15 --30892#14 --30892#13 --30892#12 --30892#11 --30892#10 --30892#9 --30892#8 --30892#7 --30892#6 -32750#10"/>
    </vehicle>
    <vehicle arrivalPos="-1.00" color="green" depart="14708.36" departLane="best" departPos="0.00" id="AVL---_4_1" type="bus">
        <route edges="-31272#5 -31272#6 -30892#17 -30892#18 -30892#19 -30892#20"/>
    </vehicle>
    <vehicle arrivalPos="-1.00" color="green" depart="14752.76" departLane="best" departPos="0.00" id="AVL---_6_0" type="bus">
        <route edges="-31496#9 -31496#10 -31496#11 -31496#12 -31496#13 -31496#14 -32750#0 -32750#1 -32750#2 -32750#3 -32750#4 -32750#5 -32750#6 -32750#7 -32750#8 -32750#9 -32750#10"/>
    </vehicle>
    <vehicle arrivalPos="-1.00" color="green" depart="14773.15" departLane="best" departPos="0.00" id="AVL---_CN_3_17" type="bus">
        <route edges="--32750#10 -30892#6 -30892#7 -30892#8 -30892#9 -30892#10 -30892#11 -30892#12 -30892#13 -30892#14 -30892#15 -30892#16 -30892#17 -30892#18 -30892#19 -30892#20"/>
    </vehicle>
    <vehicle arrivalPos="-1.00" color="green" depart="14788.23" departLane="best" departPos="0.00" id="AVL---_6_1" type="bus">
        <route edges="--32750#10 --32750#9 --32750#8 --32750#7 --32750#6 --32750#5 --32750#4 --32750#3 --32750#2 --32750#1 --32750#0 --31496#14 --31496#13 --31496#12 --31496#11 --31496#10 --31496#9"/>
    </vehicle>
    <vehicle arrivalPos="-1.00" color="green" depart="14855.11" departLane="best" departPos="0.00" id="AVL---_3_0" type="bus">
        <route edges="-30384#6 -30384#7 -30944 -30962#0 --31056#3 --31056#2 -30646#1 -30646#2 -30646#3 -30646#4"/>
    </vehicle>
    <vehicle arrivalPos="-1.00" color="green" depart="14896.28" departLane="best" departPos="0.00" id="AVL---_15_0" type="bus">
        <route edges="--32750#10 -30892#6 -30892#7 -30892#8 -30892#9 -30892#10 --32786#5 --32786#4 --32786#3 -30418#3 -30418#4 -30418#5 --30842#4 --31602#3 --31602#2 --31602#1 --31564#1 -30842#0 -32270#3 -30892#16 -31272#7 -30872#11 --30542#0 -32788#3 -32064#0 -32064#1 -32064#2 -32784#3 -32784#1 -31118#0 -31118#1 -31118#2 -32664#0 --30704"/>
    </vehicle>
    <vehicle arrivalPos="-1.00" color="green" depart="14923.90" departLane="best" departPos="0.00" id="AVL---_1_0" type="bus">
        <route edges="-31272#5 -31272#6 -31272#7 -31272#8"/>
    </vehicle>
    <vehicle arrivalPos="-1.00" color="green" depart="14925.63" departLane="best" departPos="0.00" id="AVL---_8_1" type="bus">
        <route edges="--31940#5 -32776#2 -32776#3 -32776#4 -32776#5 -31992#0 -31992#1 -31992#2 -31992#3 -31992#4 -31992#5 --32160#3 --32160#2 --32160#1 -31152#0 -31152#1 -30582#2 -31812 --30256#0 --31834#2"/>
    </vehicle>
    <vehicle arrivalPos="-1.00" color="green" depart="14958.70" departLane="best" departPos="0.00" id="AVL---_12_1" type="bus">
        <route edges="--32750#10 --30892#5 -31610#0 -31610#1 -31610#2 -31610#3 -31610#4 -31610#5 --31992#5 -30872#0 -30872#1 -30872#2 -30872#3 -30872#4 -30872#5 -30872#6 --30742#2 --30742#1 --30742#0 -30684#2"/>
    </vehicle>
    <vehicle arrivalPos="-1.00" color="green" depart="15055.91" departLane="best" departPos="0.00" id="AVL---_14_0" type="bus">
        <route edges="-31272#5 -31272#6 -30892#17 -30892#18 -30892#19 -30892#20"/>
    </vehicle>
    <vehicle arrivalPos="-1.00" color="green" depart="15072.35" departLane="best" departPos="0.00" id="AVL---_7_1" type="bus">
        <route edges="--32750#10 -30892#6 -30892#7 -30892#8 -30892#9 -32924#9 -32924#10 -32924#11 -32924#12 -32924#13 -32924#14 --32750#3 --32750#2 --32750#1 --32750#0 --31496#14 --31496#13 --31496#12 --31496#11 --31496#10 --31496#9"/>
    </vehicle>
    <vehicle arrivalPos="-1.00" color="green" depart="15568.48" departLane="best" departPos="0.00" id="AVL---_CN_1_17" type="bus">
        <route edges="-31272#5 -31272#6 -31272#7 -31272#8"/>
    </vehicle>
    <vehicle arrivalPos="-1.00" color="green" depart="16201.00" departLane="best" departPos="0.00" id="AVL---_12_2" type="bus">
        <route edges="--30684#2 -30742#0 -30742#1 -30742#2 --30872#6 --30872#5 --30872#4 --30872#3 --30872#2 --30872#1 --30872#0 -31992#5 --31610#5 --31610#4 --31610#3 --31610#2 --31610#1 --31610#0 -30892#5 -32750#10"/>
    </vehicle>
    <vehicle arrivalPos="-1.00" color="green" depart="16207.00" departLane="best" departPos="0.00" id="AVL---_1_3" type="bus">
        <route edges="--31272#8 --31272#7 --31272#6 --31272#5"/>
    </vehicle>
    <vehicle arrivalPos="-1.00" color="green" depart="16221.00" departLane="best" departPos="0.00" id="AVL---_CN_1_18" type="bus">
        <route edges="--31272#8 --31272#7 -30892#17 -31320#1 -31320#2"/>
    </vehicle>
    <vehicle arrivalPos="-1.00" color="green" depart="16223.00" departLane="best" departPos="0.00" id="AVL---_24_2" type="bus">
        <route edges="--31272#8 --31272#7 -30892#17 -30892#18 -30892#19 -30892#20"/>
    </vehicle>
    <vehicle arrivalPos="-1.00" color="green" depart="16226.00" departLane="best" departPos="0.00" id="AVL---_17_3" type="bus">
        <route edges="--31272#8 --31272#7 --30892#16 --30892#15 --30892#14 --30892#13 --30892#12 --30892#11 --30892#10 --32924#8 --32924#7"/>
    </vehicle>
    <vehicle arrivalPos="-1.00" color="green" depart="16249.17" departLane="best" departPos="0.00" id="AVL---_15_3" type="bus">
        <route edges="-30704 --32664#0 --31118#2 --31118#1 --31118#0 -32784#2 --32064#2 --32064#1 --32064#0 -32788#4 -32788#1 -32788#2 -30542#0 --30872#11 --31272#7 --30892#16 --32270#3 --30842#0 -31564#1 -31602#1 -31602#2 -31602#3 -30842#4 --30418#5 --30418#4 --30418#3 -32786#3 -32786#4 -32786#5 --30892#10 --30892#9 --30892#8 --30892#7 --30892#6 -32750#10"/>
    </vehicle>
    <vehicle arrivalPos="-1.00" color="green" depart="16253.61" departLane="best" departPos="0.00" id="AVL---_17_2" type="bus">
        <route edges="--32750#10 -30892#6 -30892#7 -30892#8 -30892#9 -30892#10 -30892#11 -30892#12 -30892#13 -30892#14 -30892#15 -30892#16 -31272#7 -31272#8"/>
    </vehicle>
    <vehicle arrivalPos="-1.00" color="green" depart="16266.22" departLane="best" departPos="0.00" id="AVL---_3_3" type="bus">
        <route edges="--30646#4 --30646#3 --30646#2 --30646#1 -31056#2 -31056#3 -30962#1 -30962#2 --31834#2"/>
    </vehicle>
    <vehicle arrivalPos="-1.00" color="green" depart="16288.33" departLane="best" departPos="0.00" id="AVL---_14_3" type="bus">
        <route edges="--30892#20 --30892#19 --30892#18 --30892#17 --31272#6 --31272#5"/>
    </vehicle>
    <vehicle arrivalPos="-1.00" color="green" depart="16316.29" departLane="best" departPos="0.00" id="AVL---_8_2" type="bus">
        <route edges="-31834#2 -30256#0 --31812 -30582#0 -30582#1 --31152#1 --31152#0 -32160#1 -32160#2 -32160#3 --31992#5 --31992#4 --31992#3 --31992#2 --31992#1 --31992#0 --32776#5 --32776#4 --32776#3 --32776#2 -31940#5"/>
    </vehicle>
    <vehicle arrivalPos="-1.00" color="green" depart="16322.29" departLane="best" departPos="0.00" id="AVL---_J2_2" type="bus">
        <route edges="-31834#2 -30256#0 --31952#18 --31952#17"/>
    </vehicle>
    <vehicle arrivalPos="-1.00" color="green" depart="16384.45" departLane="best" departPos="0.00" id="AVL---_24_3" type="bus">
        <route edges="--30892#20 --30892#19 --30892#18 --30892#17 -31272#7 -31272#8"/>
    </vehicle>
    <vehicle arrivalPos="-1.00" color="green" depart="16388.34" departLane="best" departPos="0.00" id="AVL---_4_2" type="bus">
        <route edges="--30892#20 --30892#19 --30892#18 -31320#1 -31320#2"/>
    </vehicle>
    <vehicle arrivalPos="-1.00" color="green" depart="16437.45" departLane="best" departPos="0.00" id="AVL---_J2_3" type="bus">
        <route edges="-31952#17 -31952#18 --30256#0 --31834#2"/>
    </vehicle>
    <vehicle arrivalPos="-1.00" color="green" depart="16475.29" departLane="best" departPos="0.00" id="AVL---_7_2" type="bus">
        <route edges="-31496#9 -31496#10 -31496#11 -31496#12 -31496#13 -31496#14 -32750#0 -32750#1 -32750#2 -32750#3 --32924#14 --32924#13 --32924#12 --32924#11 --32924#10 --32924#9 --30892#9 --30892#8 --30892#7 --30892#6 -32750#10"/>
    </vehicle>
    <vehicle arrivalPos="-1.00" color="green" depart="16499.68" departLane="best" departPos="0.00" id="AVL---_CN_3_18" type="bus">
        <route edges="--30892#20 --30892#19 --30892#18 --30892#17 --30892#16 --30892#15 --30892#14 --30892#13 --30892#12 --30892#11 --30892#10 --30892#9 --30892#8 --30892#7 --30892#6 -32750#10"/>
    </vehicle>
    <vehicle arrivalPos="-1.00" color="green" depart="16508.36" departLane="best" departPos="0.00" id="AVL---_4_3" type="bus">
        <route edges="-31272#5 -31272#6 -30892#17 -30892#18 -30892#19 -30892#20"/>
    </vehicle>
    <vehicle arrivalPos="-1.00" color="green" depart="16552.76" departLane="best" departPos="0.00" id="AVL---_6_2" type="bus">
        <route edges="-31496#9 -31496#10 -31496#11 -31496#12 -31496#13 -31496#14 -32750#0 -32750#1 -32750#2 -32750#3 -32750#4 -32750#5 -32750#6 -32750#7 -32750#8 -32750#9 -32750#10"/>
    </vehicle>
    <vehicle arrivalPos="-1.00" color="green" depart="16573.15" departLane="best" departPos="0.00" id="AVL---_CN_3_19" type="bus">
        <route edges="--32750#10 -30892#6 -30892#7 -30892#8 -30892#9 -30892#10 -30892#11 -30892#12 -30892#13 -30892#14 -30892#15 -30892#16 -30892#17 -30892#18 -30892#19 -30892#20"/>
    </vehicle>
    <vehicle arrivalPos="-1.00" color="green" depart="16588.23" departLane="best" departPos="0.00" id="AVL---_6_3" type="bus">
        <route edges="--32750#10 --32750#9 --32750#8 --32750#7 --32750#6 --32750#5 --32750#4 --32750#3 --32750#2 --32750#1 --32750#0 --31496#14 --31496#13 --31496#12 --31496#11 --31496#10 --31496#9"/>
    </vehicle>
    <vehicle arrivalPos="-1.00" color="green" depart="16655.11" departLane="best" departPos="0.00" id="AVL---_3_2" type="bus">
        <route edges="-30384#6 -30384#7 -30944 -30962#0 --31056#3 --31056#2 -30646#1 -30646#2 -30646#3 -30646#4"/>
    </vehicle>
    <vehicle arrivalPos="-1.00" color="green" depart="16696.28" departLane="best" departPos="0.00" id="AVL---_15_2" type="bus">
        <route edges="--32750#10 -30892#6 -30892#7 -30892#8 -30892#9 -30892#10 --32786#5 --32786#4 --32786#3 -30418#3 -30418#4 -30418#5 --30842#4 --31602#3 --31602#2 --31602#1 --31564#1 -30842#0 -32270#3 -30892#16 -31272#7 -30872#11 --30542#0 -32788#3 -32064#0 -32064#1 -32064#2 -32784#3 -32784#1 -31118#0 -31118#1 -31118#2 -32664#0 --30704"/>
    </vehicle>
    <vehicle arrivalPos="-1.00" color="green" depart="16723.90" departLane="best" departPos="0.00" id="AVL---_1_2" type="bus">
        <route edges="-31272#5 -31272#6 -31272#7 -31272#8"/>
    </vehicle>
    <vehicle arrivalPos="-1.00" color="green" depart="16725.63" departLane="best" departPos="0.00" id="AVL---_8_3" type="bus">
        <route edges="--31940#5 -32776#2 -32776#3 -32776#4 -32776#5 -31992#0 -31992#1 -31992#2 -31992#3 -31992#4 -31992#5 --32160#3 --32160#2 --32160#1 -31152#0 -31152#1 -30582#2 -31812 --30256#0 --31834#2"/>
    </vehicle>
    <vehicle arrivalPos="-1.00" color="green" depart="16758.70" departLane="best" departPos="0.00" id="AVL---_12_3" type="bus">
        <route edges="--32750#10 --30892#5 -31610#0 -31610#1 -31610#2 -31610#3 -31610#4 -31610#5 --31992#5 -30872#0 -30872#1 -30872#2 -30872#3 -30872#4 -30872#5 -30872#6 --30742#2 --30742#1 --30742#0 -30684#2"/>
    </vehicle>
    <vehicle arrivalPos="-1.00" color="green" depart="16855.91" departLane="best" departPos="0.00" id="AVL---_14_2" type="bus">
        <route edges="-31272#5 -31272#6 -30892#17 -30892#18 -30892#19 -30892#20"/>
    </vehicle>
    <vehicle arrivalPos="-1.00" color="green" depart="16872.35" departLane="best" departPos="0.00" id="AVL---_7_3" type="bus">
        <route edges="--32750#10 -30892#6 -30892#7 -30892#8 -30892#9 -32924#9 -32924#10 -32924#11 -32924#12 -32924#13 -32924#14 --32750#3 --32750#2 --32750#1 --32750#0 --31496#14 --31496#13 --31496#12 --31496#11 --31496#10 --31496#9"/>
    </vehicle>
    <vehicle arrivalPos="-1.00" color="green" depart="17368.48" departLane="best" departPos="0.00" id="AVL---_CN_1_19" type="bus">
        <route edges="-31272#5 -31272#6 -31272#7 -31272#8"/>
    </vehicle>
    <vehicle arrivalPos="-1.00" color="green" depart="18001.00" departLane="best" departPos="0.00" id="AVL---_12_4" type="bus">
        <route edges="--30684#2 -30742#0 -30742#1 -30742#2 --30872#6 --30872#5 --30872#4 --30872#3 --30872#2 --30872#1 --30872#0 -31992#5 --31610#5 --31610#4 --31610#3 --31610#2 --31610#1 --31610#0 -30892#5 -32750#10"/>
    </vehicle>
    <vehicle arrivalPos="-1.00" color="green" depart="18007.00" departLane="best" departPos="0.00" id="AVL---_1_5" type="bus">
        <route edges="--31272#8 --31272#7 --31272#6 --31272#5"/>
    </vehicle>
    <vehicle arrivalPos="-1.00" color="green" depart="18023.00" departLane="best" departPos="0.00" id="AVL---_24_4" type="bus">
        <route edges="--31272#8 --31272#7 -30892#17 -30892#18 -30892#19 -30892#20"/>
    </vehicle>
    <vehicle arrivalPos="-1.00" color="green" depart="18026.00" departLane="best" departPos="0.00" id="AVL---_17_5" type="bus">
        <route edges="--31272#8 --31272#7 --30892#16 --30892#15 --30892#14 --30892#13 --30892#12 --30892#11 --30892#10 --32924#8 --32924#7"/>
    </vehicle>
    <vehicle arrivalPos="-1.00" color="green" depart="18049.17" departLane="best" departPos="0.00" id="AVL---_15_5" type="bus">
        <route edges="-30704 --32664#0 --31118#2 --31118#1 --31118#0 -32784#2 --32064#2 --32064#1 --32064#0 -32788#4 -32788#1 -32788#2 -30542#0 --30872#11 --31272#7 --30892#16 --32270#3 --30842#0 -31564#1 -31602#1 -31602#2 -31602#3 -30842#4 --30418#5 --30418#4 --30418#3 -32786#3 -32786#4 -32786#5 --30892#10 --30892#9 --30892#8 --30892#7 --30892#6 -32750#10"/>
    </vehicle>
    <vehicle arrivalPos="-1.00" color="green" depart="18053.61" departLane="best" departPos="0.00" id="AVL---_17_4" type="bus">
        <route edges="--32750#10 -30892#6 -30892#7 -30892#8 -30892#9 -30892#10 -30892#11 -30892#12 -30892#13 -30892#14 -30892#15 -30892#16 -31272#7 -31272#8"/>
    </vehicle>
    <vehicle arrivalPos="-1.00" color="green" depart="18066.22" departLane="best" departPos="0.00" id="AVL---_3_5" type="bus">
        <route edges="--30646#4 --30646#3 --30646#2 --30646#1 -31056#2 -31056#3 -30962#1 -30962#2 --31834#2"/>
    </vehicle>
    <vehicle arrivalPos="-1.00" color="green" depart="18088.33" departLane="best" departPos="0.00" id="AVL---_14_5" type="bus">
        <route edges="--30892#20 --30892#19 --30892#18 --30892#17 --31272#6 --31272#5"/>
    </vehicle>
    <vehicle arrivalPos="-1.00" color="green" depart="18116.29" departLane="best" departPos="0.00" id="AVL---_8_4" type="bus">
        <route edges="-31834#2 -30256#0 --31812 -30582#0 -30582#1 --31152#1 --31152#0 -32160#1 -32160#2 -32160#3 --31992#5 --31992#4 --31992#3 --31992#2 --31992#1 --31992#0 --32776#5 --32776#4 --32776#3 --32776#2 -31940#5"/>
    </vehicle>
    <vehicle arrivalPos="-1.00" color="green" depart="18122.29" departLane="best" departPos="0.00" id="AVL---_J2_4" type="bus">
        <route edges="-31834#2 -30256#0 --31952#18 --31952#17"/>
    </vehicle>
    <vehicle arrivalPos="-1.00" color="green" depart="18184.45" departLane="best" departPos="0.00" id="AVL---_24_5" type="bus">
        <route edges="--30892#20 --30892#19 --30892#18 --30892#17 -31272#7 -31272#8"/>
    </vehicle>
    <vehicle arrivalPos="-1.00" color="green" depart="18188.34" departLane="best" departPos="0.00" id="AVL---_4_4" type="bus">
        <route edges="--30892#20 --30892#19 --30892#18 -31320#1 -31320#2"/>
    </vehicle>
    <vehicle arrivalPos="-1.00" color="green" depart="18237.45" departLane="best" departPos="0.00" id="AVL---_J2_5" type="bus">
        <route edges="-31952#17 -31952#18 --30256#0 --31834#2"/>
    </vehicle>
    <vehicle arrivalPos="-1.00" color="green" depart="18275.29" departLane="best" departPos="0.00" id="AVL---_7_4" type="bus">
        <route edges="-31496#9 -31496#10 -31496#11 -31496#12 -31496#13 -31496#14 -32750#0 -32750#1 -32750#2 -32750#3 --32924#14 --32924#13 --32924#12 --32924#11 --32924#10 --32924#9 --30892#9 --30892#8 --30892#7 --30892#6 -32750#10"/>
    </vehicle>
    <vehicle arrivalPos="-1.00" color="green" depart="18308.36" departLane="best" departPos="0.00" id="AVL---_4_5" type="bus">
        <route edges="-31272#5 -31272#6 -30892#17 -30892#18 -30892#19 -30892#20"/>
    </vehicle>
    <vehicle arrivalPos="-1.00" color="green" depart="18352.76" departLane="best" departPos="0.00" id="AVL---_6_4" type="bus">
        <route edges="-31496#9 -31496#10 -31496#11 -31496#12 -31496#13 -31496#14 -32750#0 -32750#1 -32750#2 -32750#3 -32750#4 -32750#5 -32750#6 -32750#7 -32750#8 -32750#9 -32750#10"/>
    </vehicle>