<?xml version="1.0" encoding="UTF-8"?>

<!-- generated on jeu. 31 janv. 2019 12:54:43 CET by Eclipse SUMO netedit Version 1.0.1
<configuration xmlns:xsi="http://www.w3.org/2001/XMLSchema-instance" xsi:noNamespaceSchemaLocation="http://sumo.dlr.de/xsd/netconvertConfiguration.xsd">

    <input>
        <sumo-net-file value="/home/joseph/F2MD/SumoTest/Extract%20Lust/LuSTScenario/lust.net.xml"/>
    </input>

    <output>
        <output-file value="/home/joseph/F2MD/SumoTest/Extract%20Lust/LustFiltered/lust-filt.net.xml"/>
    </output>

    <processing>
        <offset.disable-normalization value="true"/>
        <lefthand value="false"/>
    </processing>

    <junctions>
        <no-turnarounds value="true"/>
        <junctions.corner-detail value="0"/>
        <junctions.limit-turn-speed value="-1"/>
        <rectangular-lane-cut value="false"/>
    </junctions>

    <pedestrian>
        <walkingareas value="false"/>
    </pedestrian>

</configuration>
-->

<additional xmlns:xsi="http://www.w3.org/2001/XMLSchema-instance" xsi:noNamespaceSchemaLocation="http://sumo.dlr.de/xsd/additional_file.xsd">
    <poly id="-146876" type="building" color="red" fill="1" layer="2.00" shape="4832.240000,6082.070000 4872.510000,6078.280000 4876.190000,6108.740000 4835.920000,6112.530000 4832.240000,6082.070000"/>
    <poly id="-146878" type="building" color="red" fill="1" layer="2.00" shape="4815.600000,6166.730000 4786.370000,6175.240000 4789.640000,6186.410000 4818.860000,6177.900000 4815.600000,6166.730000"/>
    <poly id="-146888" type="building" color="red" fill="1" layer="2.00" shape="5701.080000,6540.000000 5706.950000,6529.160000 5708.590000,6530.050000 5710.300000,6526.900000 5715.800000,6529.870000 5714.140000,6532.930000 5718.000000,6535.010000 5717.570000,6535.820000 5719.190000,6536.690000 5716.160000,6542.310000 5714.620000,6541.480000 5712.190000,6545.980000 5701.080000,6540.000000"/>
    <poly id="-146890" type="building" color="red" fill="1" layer="2.00" shape="6302.140000,6697.390000 6307.610000,6729.080000 6318.040000,6727.290000 6313.410000,6700.480000 6316.950000,6699.870000 6316.020000,6694.490000 6302.140000,6697.390000"/>
    <poly id="-146898" type="building" color="red" fill="1" layer="2.00" shape="5310.410000,6490.100000 5310.200000,6498.920000 5317.910000,6499.110000 5317.820000,6502.780000 5322.490000,6502.890000 5322.790000,6490.390000 5310.410000,6490.100000"/>
    <poly id="-146902" type="building" color="red" fill="1" layer="2.00" shape="4889.400000,6958.970000 4890.730000,6970.380000 4902.600000,6969.010000 4901.290000,6957.590000 4889.400000,6958.970000"/>
    <poly id="-146904" type="building" color="red" fill="1" layer="2.00" shape="4865.830000,6245.620000 4871.070000,6275.200000 4883.230000,6273.060000 4878.000000,6243.470000 4865.830000,6245.620000"/>
    <poly id="-146926" type="building" color="red" fill="1" layer="2.00" shape="4926.430000,6781.460000 4944.490000,6782.870000 4945.450000,6770.540000 4927.390000,6769.150000 4926.430000,6781.460000"/>
    <poly id="-146930" type="building" color="red" fill="1" layer="2.00" shape="6677.310000,7390.490000 6690.750000,7378.430000 6694.580000,7378.330000 6697.960000,7380.820000 6697.590000,7385.020000 6683.670000,7397.100000 6677.310000,7390.490000"/>
    <poly id="-146940" type="building" color="red" fill="1" layer="2.00" shape="4890.930000,7775.250000 4905.070000,7779.080000 4908.930000,7764.890000 4894.790000,7761.060000 4890.930000,7775.250000"/>
    <poly id="-146950" type="building" color="red" fill="1" layer="2.00" shape="5449.880000,7650.590000 5467.650000,7666.930000 5475.340000,7658.620000 5457.580000,7642.270000 5449.880000,7650.590000"/>
    <poly id="-146952" type="building" color="red" fill="1" layer="2.00" shape="5461.110000,6561.620000 5465.210000,6563.590000 5469.850000,6565.710000 5470.450000,6570.050000 5482.170000,6567.200000 5480.950000,6560.340000 5478.480000,6557.140000 5466.210000,6550.290000 5461.110000,6561.620000"/>
    <poly id="-146964" type="building" color="red" fill="1" layer="2.00" shape="5755.900000,6399.630000 5786.570000,6414.010000 5792.340000,6401.790000 5765.110000,6389.010000 5763.670000,6392.070000 5760.230000,6390.470000 5755.900000,6399.630000"/>
    <poly id="-146988" type="building" color="red" fill="1" layer="2.00" shape="5265.390000,6333.470000 5259.950000,6332.940000 5258.480000,6347.600000 5258.340000,6348.950000 5271.250000,6350.230000 5271.350000,6349.230000 5277.880000,6349.880000 5278.990000,6338.840000 5279.830000,6338.920000 5280.230000,6334.950000 5265.390000,6333.470000"/>
    <poly id="-146994" type="building" color="red" fill="1" layer="2.00" shape="5374.740000,7634.820000 5353.710000,7637.740000 5355.320000,7649.320000 5376.350000,7646.420000 5374.740000,7634.820000"/>
    <poly id="-147028" type="building" color="red" fill="1" layer="2.00" shape="6056.230000,6823.640000 6057.980000,6837.150000 6084.030000,6833.780000 6082.270000,6820.260000 6056.230000,6823.640000"/>
    <poly id="-147062" type="building" color="red" fill="1" layer="2.00" shape="5740.400000,6869.040000 5741.210000,6883.890000 5764.600000,6882.610000 5763.780000,6867.760000 5740.400000,6869.040000"/>
    <poly id="-147074" type="building" color="red" fill="1" layer="2.00" shape="6260.590000,6224.260000 6276.300000,6233.690000 6281.440000,6225.190000 6272.630000,6219.910000 6275.010000,6215.970000 6268.100000,6211.820000 6260.590000,6224.260000"/>
    <poly id="-147076" type="building" color="red" fill="1" layer="2.00" shape="5442.060000,6722.230000 5426.560000,6718.420000 5428.420000,6710.900000 5443.920000,6714.710000 5442.060000,6722.230000"/>
    <poly id="-147080" type="building" color="red" fill="1" layer="2.00" shape="6240.970000,6713.700000 6244.000000,6703.540000 6242.010000,6702.960000 6244.330000,6695.200000 6250.020000,6696.900000 6252.110000,6689.880000 6241.760000,6686.820000 6245.810000,6673.260000 6234.350000,6669.860000 6226.290000,6696.880000 6230.270000,6698.050000 6228.270000,6704.770000 6233.280000,6706.240000 6231.860000,6710.990000 6240.970000,6713.700000"/>
    <poly id="-147096" type="building" color="red" fill="1" layer="2.00" shape="5151.600000,7610.340000 5212.530000,7594.100000 5224.300000,7622.330000 5164.070000,7637.210000 5151.600000,7610.340000"/>
    <poly id="-147104" type="building" color="red" fill="1" layer="2.00" shape="6239.490000,5997.120000 6247.530000,6005.620000 6276.890000,5977.990000 6268.850000,5969.490000 6254.820000,5982.680000 6239.490000,5997.120000"/>
    <poly id="-147112" type="building" color="red" fill="1" layer="2.00" shape="5045.510000,6461.140000 5058.630000,6462.540000 5059.660000,6452.850000 5075.120000,6454.500000 5076.880000,6438.110000 5059.000000,6436.210000 5057.920000,6446.280000 5047.230000,6445.140000 5045.510000,6461.140000"/>
    <poly id="-147118" type="building" color="red" fill="1" layer="2.00" shape="4630.100000,7751.410000 4649.560000,7739.480000 4654.860000,7748.080000 4658.140000,7746.080000 4692.930000,7802.520000 4668.340000,7817.580000 4638.610000,7769.340000 4633.660000,7761.330000 4635.510000,7760.200000 4630.100000,7751.410000"/>
    <poly id="-147124" type="building" color="red" fill="1" layer="2.00" shape="6097.680000,6783.310000 6099.430000,6798.060000 6127.500000,6794.740000 6126.100000,6782.950000 6107.970000,6785.090000 6107.610000,6782.130000 6097.680000,6783.310000"/>
    <poly id="-147130" type="building" color="red" fill="1" layer="2.00" shape="4702.760000,5937.300000 4664.380000,5952.020000 4669.930000,5964.670000 4707.910000,5949.460000 4702.760000,5937.300000"/>
    <poly id="-147144" type="building" color="red" fill="1" layer="2.00" shape="5269.160000,6459.690000 5260.780000,6458.950000 5259.790000,6469.970000 5268.180000,6470.700000 5269.160000,6459.690000"/>
    <poly id="-147158" type="building" color="red" fill="1" layer="2.00" shape="5537.080000,6427.780000 5527.220000,6452.060000 5533.710000,6454.710000 5543.590000,6442.820000 5547.530000,6432.000000 5537.080000,6427.780000"/>
    <poly id="-147164" type="building" color="red" fill="1" layer="2.00" shape="5475.610000,6268.350000 5477.810000,6269.400000 5474.610000,6276.090000 5462.560000,6270.350000 5465.770000,6263.660000 5475.610000,6268.350000"/>
    <poly id="-147180" type="building" color="red" fill="1" layer="2.00" shape="6641.470000,5577.920000 6649.090000,5578.770000 6649.570000,5569.020000 6642.690000,5567.740000 6641.470000,5577.920000"/>
    <poly id="-147184" type="building" color="red" fill="1" layer="2.00" shape="6399.200000,5813.800000 6409.450000,5808.270000 6402.550000,5795.570000 6392.300000,5801.090000 6399.200000,5813.800000"/>
    <poly id="-147202" type="building" color="red" fill="1" layer="2.00" shape="5079.040000,7030.260000 5111.670000,7030.950000 5111.930000,7019.120000 5079.290000,7018.420000 5079.040000,7030.260000"/>
    <poly id="-147242" type="building" color="red" fill="1" layer="2.00" shape="5523.920000,6769.340000 5533.370000,6755.650000 5521.570000,6747.550000 5512.120000,6761.240000 5523.920000,6769.340000"/>
    <poly id="-147246" type="building" color="red" fill="1" layer="2.00" shape="4824.550000,6020.340000 4824.910000,6028.180000 4837.680000,6027.590000 4837.320000,6019.760000 4824.550000,6020.340000"/>
    <poly id="-147256" type="building" color="red" fill="1" layer="2.00" shape="6020.880000,6912.910000 6020.750000,6940.920000 6029.820000,6940.950000 6029.940000,6912.950000 6020.880000,6912.910000"/>
    <poly id="-147258" type="building" color="red" fill="1" layer="2.00" shape="6570.260000,5451.440000 6676.770000,5455.770000 6677.860000,5434.000000 6571.160000,5429.490000 6570.260000,5451.440000"/>
    <poly id="-147266" type="building" color="red" fill="1" layer="2.00" shape="5632.380000,6042.210000 5679.240000,6039.890000 5679.030000,6033.940000 5725.460000,6032.230000 5725.470000,6043.690000 5688.070000,6044.910000 5688.720000,6057.460000 5688.830000,6060.220000 5703.700000,6059.650000 5704.130000,6072.240000 5654.760000,6073.550000 5642.540000,6095.590000 5632.240000,6090.450000 5638.680000,6077.560000 5634.220000,6075.330000 5626.370000,6086.960000 5620.750000,6083.440000 5615.820000,6078.280000 5611.840000,6071.800000 5609.870000,6065.130000 5608.770000,6058.000000 5632.940000,6055.680000 5632.380000,6042.210000"/>
    <poly id="-147276" type="building" color="red" fill="1" layer="2.00" shape="5734.830000,7011.240000 5735.690000,7024.710000 5764.620000,7022.860000 5764.890000,7026.930000 5775.380000,7026.260000 5774.250000,7008.720000 5734.830000,7011.240000"/>
    <poly id="-147308" type="building" color="red" fill="1" layer="2.00" shape="5633.110000,6665.750000 5643.950000,6674.470000 5668.630000,6643.980000 5657.780000,6635.260000 5633.110000,6665.750000"/>
    <poly id="-147318" type="building" color="red" fill="1" layer="2.00" shape="4915.910000,6450.410000 4914.310000,6441.740000 4929.060000,6439.030000 4930.660000,6447.690000 4915.910000,6450.410000"/>
    <poly id="-147322" type="building" color="red" fill="1" layer="2.00" shape="6519.260000,5607.060000 6554.790000,5606.560000 6554.390000,5618.530000 6518.650000,5619.050000 6519.260000,5607.060000"/>
    <poly id="-147342" type="building" color="red" fill="1" layer="2.00" shape="5612.990000,5897.790000 5644.210000,5896.590000 5644.810000,5912.230000 5613.590000,5913.430000 5612.990000,5897.790000"/>
    <poly id="-147344" type="building" color="red" fill="1" layer="2.00" shape="6575.260000,7648.790000 6583.030000,7656.040000 6589.910000,7648.710000 6593.660000,7652.210000 6598.150000,7647.420000 6586.520000,7637.070000 6575.260000,7648.790000"/>
    <poly id="-147346" type="building" color="red" fill="1" layer="2.00" shape="6464.180000,7794.310000 6472.310000,7785.380000 6482.880000,7773.750000 6474.220000,7765.910000 6455.510000,7786.470000 6464.180000,7794.310000"/>
    <poly id="-147352" type="building" color="red" fill="1" layer="2.00" shape="4608.750000,6198.920000 4598.600000,6170.320000 4595.440000,6142.850000 4606.880000,6141.610000 4609.360000,6156.100000 4611.660000,6154.630000 4615.410000,6166.110000 4610.630000,6166.380000 4612.280000,6173.010000 4621.670000,6195.210000 4608.750000,6198.920000"/>
    <poly id="-147378" type="building" color="red" fill="1" layer="2.00" shape="6280.170000,7774.300000 6284.420000,7779.760000 6293.970000,7773.670000 6296.420000,7776.570000 6304.390000,7771.450000 6297.650000,7763.430000 6280.170000,7774.300000"/>
    <poly id="-147384" type="building" color="red" fill="1" layer="2.00" shape="5488.090000,6731.280000 5493.660000,6723.910000 5506.100000,6732.170000 5500.880000,6740.200000 5488.090000,6731.280000"/>
    <poly id="-147388" type="building" color="red" fill="1" layer="2.00" shape="4649.700000,6470.080000 4664.720000,6473.620000 4666.090000,6467.840000 4651.070000,6464.310000 4649.700000,6470.080000"/>
    <poly id="-147394" type="building" color="red" fill="1" layer="2.00" shape="5287.730000,6598.150000 5283.050000,6604.910000 5292.060000,6611.140000 5296.020000,6605.440000 5296.760000,6604.380000 5287.730000,6598.150000"/>
    <poly id="-147398" type="building" color="red" fill="1" layer="2.00" shape="5138.940000,5970.300000 5130.330000,5950.540000 5115.480000,5957.440000 5114.550000,5955.160000 5096.550000,5962.890000 5101.620000,5986.360000 5138.940000,5970.300000"/>
    <poly id="-147426" type="building" color="red" fill="1" layer="2.00" shape="5382.510000,6336.110000 5385.390000,6340.360000 5386.780000,6339.430000 5387.930000,6341.120000 5397.870000,6334.420000 5393.850000,6328.480000 5382.510000,6336.110000"/>
    <poly id="-147430" type="building" color="red" fill="1" layer="2.00" shape="4866.040000,7230.880000 4866.980000,7241.910000 4882.370000,7240.600000 4881.430000,7229.570000 4866.040000,7230.880000"/>
    <poly id="-147432" type="building" color="red" fill="1" layer="2.00" shape="4891.500000,6195.500000 4905.770000,6194.510000 4903.060000,6155.090000 4889.680000,6156.000000 4890.270000,6164.550000 4892.550000,6164.400000 4893.030000,6171.420000 4889.860000,6171.640000 4891.500000,6195.500000"/>
    <poly id="-147438" type="building" color="red" fill="1" layer="2.00" shape="5834.370000,7649.540000 5845.720000,7666.100000 5853.540000,7660.780000 5842.200000,7644.220000 5834.370000,7649.540000"/>
    <poly id="-147454" type="building" color="red" fill="1" layer="2.00" shape="6027.480000,6640.820000 6065.530000,6626.420000 6060.160000,6612.400000 6021.990000,6628.890000 6027.480000,6640.820000"/>
    <poly id="-147468" type="building" color="red" fill="1" layer="2.00" shape="6688.390000,5978.000000 6687.200000,5965.700000 6677.330000,5966.640000 6675.970000,5952.500000 6691.010000,5951.060000 6693.550000,5977.510000 6688.390000,5978.000000"/>
    <poly id="-147484" type="building" color="red" fill="1" layer="2.00" shape="6282.720000,7013.790000 6285.150000,7031.430000 6303.800000,7028.870000 6301.360000,7011.210000 6282.720000,7013.790000"/>
    <poly id="-147496" type="building" color="red" fill="1" layer="2.00" shape="6517.130000,7719.400000 6522.570000,7712.350000 6535.930000,7722.610000 6542.750000,7727.830000 6537.320000,7734.890000 6535.470000,7733.470000 6524.910000,7725.370000 6517.130000,7719.400000"/>
    <poly id="-147498" type="building" color="red" fill="1" layer="2.00" shape="6334.920000,6371.020000 6332.520000,6350.830000 6344.700000,6349.390000 6347.100000,6369.570000 6334.920000,6371.020000"/>
    <poly id="-147512" type="building" color="red" fill="1" layer="2.00" shape="5788.160000,6380.410000 5799.420000,6386.050000 5806.150000,6372.740000 5794.900000,6367.080000 5788.160000,6380.410000"/>
    <poly id="-147520" type="building" color="red" fill="1" layer="2.00" shape="5470.480000,6352.080000 5474.600000,6343.930000 5463.060000,6338.110000 5458.940000,6346.270000 5470.480000,6352.080000"/>
    <poly id="-147522" type="building" color="red" fill="1" layer="2.00" shape="5671.060000,7540.100000 5671.820000,7544.970000 5678.720000,7543.890000 5677.950000,7539.020000 5671.060000,7540.100000"/>
    <poly id="-147538" type="building" color="red" fill="1" layer="2.00" shape="5756.080000,7668.210000 5757.510000,7672.360000 5766.130000,7669.430000 5764.700000,7665.260000 5756.080000,7668.210000"/>
    <poly id="-147560" type="building" color="red" fill="1" layer="2.00" shape="5219.340000,6522.800000 5218.010000,6530.310000 5222.220000,6531.050000 5221.830000,6533.290000 5230.070000,6534.740000 5231.790000,6524.990000 5219.340000,6522.800000"/>
    <poly id="-147580" type="building" color="red" fill="1" layer="2.00" shape="5101.090000,6371.280000 5109.890000,6372.250000 5111.510000,6357.730000 5102.710000,6356.750000 5101.090000,6371.280000"/>
    <poly id="-147590" type="building" color="red" fill="1" layer="2.00" shape="6509.920000,7138.110000 6513.640000,7136.950000 6514.730000,7139.430000 6521.390000,7136.220000 6515.410000,7119.910000 6523.160000,7117.080000 6518.740000,7105.050000 6503.410000,7110.650000 6504.500000,7113.650000 6499.130000,7115.610000 6509.920000,7138.110000"/>
    <poly id="-147594" type="building" color="red" fill="1" layer="2.00" shape="5656.380000,6427.870000 5661.600000,6435.790000 5654.040000,6440.980000 5644.170000,6436.590000 5645.480000,6430.220000 5650.030000,6430.820000 5655.430000,6426.870000 5656.380000,6427.870000"/>
    <poly id="-147598" type="building" color="red" fill="1" layer="2.00" shape="5344.350000,6395.380000 5349.900000,6396.030000 5351.360000,6383.450000 5345.810000,6382.800000 5344.350000,6395.380000"/>
    <poly id="-147614" type="building" color="red" fill="1" layer="2.00" shape="5250.890000,6602.590000 5249.550000,6601.710000 5247.180000,6605.270000 5248.660000,6606.250000 5246.610000,6609.310000 5256.780000,6616.070000 5261.210000,6609.450000 5250.890000,6602.590000"/>
    <poly id="-147616" type="building" color="red" fill="1" layer="2.00" shape="6252.350000,7525.080000 6261.680000,7529.310000 6266.230000,7519.340000 6257.470000,7515.370000 6252.350000,7525.080000"/>
    <poly id="-147626" type="building" color="red" fill="1" layer="2.00" shape="6459.790000,6023.980000 6472.810000,6019.420000 6464.490000,5995.790000 6451.480000,6000.350000 6459.790000,6023.980000"/>
    <poly id="-147664" type="building" color="red" fill="1" layer="2.00" shape="5275.190000,7716.830000 5303.730000,7713.270000 5302.070000,7700.030000 5273.530000,7703.600000 5275.190000,7716.830000"/>
    <poly id="-147684" type="building" color="red" fill="1" layer="2.00" shape="6679.280000,7683.190000 6671.040000,7678.280000 6665.140000,7672.780000 6669.330000,7668.670000 6668.480000,7667.290000 6672.950000,7652.750000 6674.940000,7651.440000 6693.540000,7670.640000 6679.280000,7683.190000"/>
    <poly id="-147686" type="building" color="red" fill="1" layer="2.00" shape="5501.040000,6307.040000 5493.970000,6307.370000 5494.280000,6314.010000 5501.350000,6313.690000 5501.040000,6307.040000"/>
    <poly id="-147690" type="building" color="red" fill="1" layer="2.00" shape="5641.110000,6248.590000 5647.030000,6236.170000 5683.220000,6253.930000 5677.120000,6266.560000 5641.110000,6248.590000"/>
    <poly id="-147694" type="building" color="red" fill="1" layer="2.00" shape="5915.640000,6806.050000 5916.760000,6821.360000 5902.560000,6822.400000 5901.450000,6807.080000 5915.640000,6806.050000"/>
    <poly id="-147718" type="building" color="red" fill="1" layer="2.00" shape="5229.490000,7775.100000 5237.270000,7774.800000 5237.390000,7777.940000 5244.390000,7777.670000 5244.490000,7780.250000 5255.070000,7779.840000 5255.660000,7795.180000 5245.850000,7795.560000 5245.690000,7791.390000 5238.580000,7791.670000 5238.430000,7787.700000 5229.990000,7788.020000 5229.490000,7775.100000"/>
    <poly id="-147720" type="building" color="red" fill="1" layer="2.00" shape="6326.470000,6316.280000 6329.250000,6327.930000 6301.770000,6334.450000 6298.990000,6322.800000 6326.470000,6316.280000"/>
    <poly id="-147764" type="building" color="red" fill="1" layer="2.00" shape="6368.460000,5842.090000 6353.960000,5800.690000 6373.830000,5793.770000 6367.030000,5774.360000 6374.530000,5771.740000 6381.530000,5791.730000 6383.870000,5790.910000 6379.560000,5778.610000 6384.000000,5777.060000 6390.950000,5796.870000 6386.090000,5798.570000 6397.760000,5831.870000 6368.460000,5842.090000"/>
    <poly id="-147782" type="building" color="red" fill="1" layer="2.00" shape="5741.290000,6909.600000 5742.130000,6919.680000 5725.030000,6921.100000 5724.190000,6911.020000 5741.290000,6909.600000"/>
    <poly id="-147790" type="building" color="red" fill="1" layer="2.00" shape="5198.170000,7673.260000 5202.250000,7689.400000 5221.680000,7684.520000 5217.600000,7668.370000 5198.170000,7673.260000"/>
    <poly id="-147794" type="building" color="red" fill="1" layer="2.00" shape="5538.560000,5617.000000 5539.170000,5623.610000 5563.860000,5621.360000 5563.250000,5614.740000 5538.560000,5617.000000"/>
    <poly id="-147806" type="building" color="red" fill="1" layer="2.00" shape="5601.840000,6622.310000 5598.110000,6629.860000 5611.270000,6636.330000 5615.000000,6628.780000 5612.610000,6627.610000 5601.840000,6622.310000"/>
    <poly id="-147864" type="building" color="red" fill="1" layer="2.00" shape="5789.110000,7062.370000 5828.480000,7059.320000 5827.330000,7044.570000 5787.970000,7047.630000 5789.110000,7062.370000"/>
    <poly id="-147866" type="building" color="red" fill="1" layer="2.00" shape="5207.350000,5936.300000 5189.850000,5944.820000 5182.400000,5929.610000 5199.910000,5921.090000 5207.350000,5936.300000"/>
    <poly id="-147872" type="building" color="red" fill="1" layer="2.00" shape="5900.760000,6771.620000 5912.930000,6768.460000 5906.500000,6743.800000 5894.330000,6746.950000 5900.760000,6771.620000"/>
    <poly id="-147908" type="building" color="red" fill="1" layer="2.00" shape="5054.280000,6602.000000 5085.500000,6604.730000 5086.630000,6591.850000 5055.410000,6589.130000 5054.280000,6602.000000"/>
    <poly id="-147926" type="building" color="red" fill="1" layer="2.00" shape="5077.590000,7067.630000 5111.730000,7068.720000 5112.160000,7055.290000 5078.020000,7054.200000 5077.590000,7067.630000"/>
    <poly id="-147932" type="building" color="red" fill="1" layer="2.00" shape="5147.950000,6557.780000 5144.730000,6603.280000 5160.530000,6604.390000 5163.760000,6558.880000 5147.950000,6557.780000"/>
    <poly id="-147936" type="building" color="red" fill="1" layer="2.00" shape="4854.940000,7194.510000 4856.090000,7209.010000 4867.690000,7208.080000 4868.800000,7222.110000 4883.050000,7220.980000 4880.790000,7192.470000 4854.940000,7194.510000"/>
    <poly id="-147964" type="building" color="red" fill="1" layer="2.00" shape="4679.570000,6354.810000 4701.940000,6359.320000 4735.630000,6361.180000 4736.140000,6349.940000 4718.380000,6349.840000 4718.680000,6345.390000 4702.820000,6345.220000 4696.430000,6344.040000 4695.620000,6347.390000 4682.680000,6345.200000 4679.570000,6354.810000"/>
    <poly id="-147984" type="building" color="red" fill="1" layer="2.00" shape="5669.900000,7018.340000 5669.920000,7030.380000 5683.900000,7030.350000 5683.880000,7018.300000 5669.900000,7018.340000"/>
    <poly id="-147986" type="building" color="red" fill="1" layer="2.00" shape="5901.780000,6967.350000 5902.760000,6978.850000 5922.330000,6977.170000 5920.450000,6955.280000 5909.870000,6956.190000 5910.760000,6966.580000 5901.780000,6967.350000"/>
    <poly id="-147990" type="building" color="red" fill="1" layer="2.00" shape="5518.140000,7270.120000 5518.350000,7261.920000 5512.720000,7261.790000 5513.010000,7250.090000 5527.060000,7250.430000 5526.580000,7270.320000 5518.140000,7270.120000"/>
    <poly id="-148000" type="building" color="red" fill="1" layer="2.00" shape="5596.710000,7485.020000 5576.190000,7490.710000 5580.440000,7507.880000 5600.910000,7500.870000 5596.710000,7485.020000"/>
    <poly id="-148002" type="building" color="red" fill="1" layer="2.00" shape="5182.930000,6529.140000 5181.190000,6535.070000 5190.800000,6537.880000 5192.550000,6531.960000 5182.930000,6529.140000"/>
    <poly id="-148026" type="building" color="red" fill="1" layer="2.00" shape="6516.170000,6745.520000 6523.390000,6747.460000 6531.730000,6716.490000 6524.510000,6714.560000 6516.170000,6745.520000"/>
    <poly id="-148040" type="building" color="red" fill="1" layer="2.00" shape="4884.590000,6104.190000 4899.830000,6103.360000 4899.210000,6092.100000 4883.980000,6092.930000 4884.590000,6104.190000"/>
    <poly id="-148044" type="building" color="red" fill="1" layer="2.00" shape="5119.470000,6926.100000 5116.630000,6913.190000 5125.730000,6911.210000 5128.570000,6924.110000 5119.470000,6926.100000"/>
    <poly id="-148060" type="building" color="red" fill="1" layer="2.00" shape="4948.470000,6655.450000 4947.800000,6667.840000 4977.440000,6669.430000 4978.110000,6657.050000 4948.470000,6655.450000"/>
    <poly id="-148080" type="building" color="red" fill="1" layer="2.00" shape="5505.510000,6634.810000 5500.970000,6626.060000 5489.810000,6631.220000 5488.020000,6628.550000 5483.200000,6630.320000 5479.380000,6629.580000 5478.030000,6636.200000 5488.040000,6643.480000 5505.510000,6634.810000"/>
    <poly id="-148126" type="building" color="red" fill="1" layer="2.00" shape="6005.910000,5456.460000 6011.380000,5467.590000 6058.990000,5445.990000 6048.040000,5421.700000 6024.420000,5432.310000 6019.530000,5421.470000 5994.270000,5432.840000 6005.910000,5456.460000"/>
    <poly id="-148138" type="building" color="red" fill="1" layer="2.00" shape="5913.930000,6798.800000 5889.240000,6801.230000 5889.720000,6806.120000 5877.140000,6807.350000 5875.500000,6790.680000 5912.760000,6787.010000 5913.930000,6798.800000"/>
    <poly id="-148140" type="building" color="red" fill="1" layer="2.00" shape="5569.260000,6802.210000 5570.390000,6814.500000 5584.130000,6813.250000 5583.000000,6800.950000 5569.260000,6802.210000"/>
    <poly id="-148146" type="building" color="red" fill="1" layer="2.00" shape="4880.880000,6603.860000 4878.730000,6618.200000 4886.920000,6619.440000 4882.860000,6646.430000 4894.490000,6648.160000 4900.700000,6606.810000 4880.880000,6603.860000"/>
    <poly id="-148148" type="building" color="red" fill="1" layer="2.00" shape="6040.110000,7164.850000 6064.210000,7168.360000 6066.320000,7153.950000 6042.220000,7150.460000 6040.110000,7164.850000"/>
    <poly id="-148154" type="building" color="red" fill="1" layer="2.00" shape="6220.320000,7529.340000 6231.470000,7534.880000 6237.630000,7522.560000 6226.480000,7517.010000 6220.320000,7529.340000"/>
    <poly id="-148156" type="building" color="red" fill="1" layer="2.00" shape="5509.140000,6590.850000 5511.560000,6596.960000 5510.320000,6597.440000 5511.530000,6600.520000 5527.330000,6594.310000 5525.850000,6590.550000 5526.710000,6590.220000 5525.690000,6587.640000 5523.920000,6588.340000 5522.800000,6585.480000 5521.830000,6585.860000 5509.140000,6590.850000"/>
    <poly id="-148164" type="building" color="red" fill="1" layer="2.00" shape="6198.090000,7564.160000 6204.060000,7563.930000 6203.620000,7552.490000 6215.680000,7518.630000 6226.080000,7494.570000 6216.030000,7490.710000 6205.560000,7512.910000 6197.730000,7542.380000 6198.090000,7564.160000"/>
    <poly id="-148192" type="building" color="red" fill="1" layer="2.00" shape="5824.250000,6915.960000 5849.440000,6913.150000 5847.200000,6893.180000 5838.910000,6894.100000 5839.290000,6897.450000 5829.360000,6898.550000 5828.810000,6893.670000 5824.710000,6894.120000 5824.040000,6888.150000 5817.830000,6888.830000 5818.510000,6894.830000 5821.840000,6894.460000 5824.250000,6915.960000"/>
    <poly id="-148198" type="building" color="red" fill="1" layer="2.00" shape="5390.500000,6684.330000 5383.070000,6682.630000 5385.810000,6670.680000 5393.240000,6672.380000 5390.500000,6684.330000"/>
    <poly id="-148208" type="building" color="red" fill="1" layer="2.00" shape="6509.700000,5754.790000 6517.860000,5757.850000 6521.300000,5748.720000 6513.140000,5745.660000 6509.700000,5754.790000"/>
    <poly id="-148216" type="building" color="red" fill="1" layer="2.00" shape="6649.100000,7773.140000 6662.200000,7785.920000 6645.240000,7803.200000 6634.070000,7795.020000 6646.810000,7782.750000 6643.160000,7779.200000 6649.100000,7773.140000"/>
    <poly id="-148260" type="building" color="red" fill="1" layer="2.00" shape="5765.810000,7691.480000 5773.430000,7703.440000 5775.680000,7702.020000 5777.710000,7705.200000 5788.040000,7698.650000 5786.200000,7695.760000 5789.000000,7693.970000 5781.190000,7681.730000 5765.810000,7691.480000"/>
    <poly id="-148264" type="building" color="red" fill="1" layer="2.00" shape="6327.740000,6464.630000 6333.080000,6481.210000 6306.410000,6489.760000 6301.070000,6473.190000 6327.740000,6464.630000"/>
    <poly id="-148268" type="building" color="red" fill="1" layer="2.00" shape="6670.800000,7842.000000 6652.030000,7849.790000 6649.640000,7838.550000 6661.290000,7826.790000 6665.400000,7824.760000 6670.800000,7842.000000"/>
    <poly id="-148270" type="building" color="red" fill="1" layer="2.00" shape="4904.750000,6241.170000 4906.980000,6253.780000 4915.990000,6252.190000 4913.760000,6239.580000 4904.750000,6241.170000"/>
    <poly id="-148288" type="building" color="red" fill="1" layer="2.00" shape="4957.950000,7056.070000 4957.290000,7048.950000 4945.750000,7050.020000 4946.410000,7057.140000 4957.950000,7056.070000"/>
    <poly id="-148296" type="building" color="red" fill="1" layer="2.00" shape="5799.010000,6782.410000 5832.790000,6777.630000 5830.680000,6762.800000 5796.900000,6767.590000 5799.010000,6782.410000"/>
    <poly id="-148332" type="building" color="red" fill="1" layer="2.00" shape="4952.950000,6140.100000 4986.740000,6141.740000 4987.350000,6129.310000 4953.560000,6127.680000 4952.950000,6140.100000"/>