<?xml version="1.0" encoding="UTF-8"?>

<!-- generated on jeu. 31 janv. 2019 12:54:17 CET by Eclipse SUMO netedit Version 1.0.1
<configuration xmlns:xsi="http://www.w3.org/2001/XMLSchema-instance" xsi:noNamespaceSchemaLocation="http://sumo.dlr.de/xsd/netconvertConfiguration.xsd">

    <input>
        <sumo-net-file value="/home/joseph/F2MD/SumoTest/Extract%20Lust/LuSTScenario/lust.net.xml"/>
    </input>

    <output>
        <output-file value="/home/joseph/F2MD/SumoTest/Extract%20Lust/LustFiltered/lust-filt.net.xml"/>
    </output>

    <processing>
        <offset.disable-normalization value="true"/>
        <lefthand value="false"/>
    </processing>

    <junctions>
        <no-turnarounds value="true"/>
        <junctions.corner-detail value="0"/>
        <junctions.limit-turn-speed value="-1"/>
        <rectangular-lane-cut value="false"/>
    </junctions>

    <pedestrian>
        <walkingareas value="false"/>
    </pedestrian>

</configuration>
-->

<net version="1.0" xmlns:xsi="http://www.w3.org/2001/XMLSchema-instance" xsi:noNamespaceSchemaLocation="http://sumo.dlr.de/xsd/net_file.xsd">

    <location netOffset="-285448.66,-5492398.13" convBoundary="4633.52,5448.76,6691.40,7881.35" origBoundary="6.030969,49.549099,6.216758,49.652578" projParameter="+proj=utm +zone=32 +ellps=WGS84 +datum=WGS84 +units=m +no_defs"/>

    <edge id=":-10052_0" function="internal">
        <lane id=":-10052_0_0" index="0" speed="13.89" length="11.13" shape="5549.53,7347.20 5538.43,7346.38"/>
    </edge>
    <edge id=":-10052_1" function="internal">
        <lane id=":-10052_1_0" index="0" speed="13.89" length="3.93" shape="5549.53,7347.20 5547.20,7346.46 5546.21,7345.35"/>
    </edge>
    <edge id=":-10052_4" function="internal">
        <lane id=":-10052_4_0" index="0" speed="13.89" length="7.83" shape="5546.21,7345.35 5545.59,7344.66 5544.68,7341.81 5544.48,7337.91"/>
    </edge>
    <edge id=":-10052_2" function="internal">
        <lane id=":-10052_2_0" index="0" speed="13.89" length="9.03" shape="5538.64,7343.18 5541.12,7342.99 5542.92,7342.05 5544.04,7340.36 5544.48,7337.91"/>
    </edge>
    <edge id=":-10052_3" function="internal">
        <lane id=":-10052_3_0" index="0" speed="13.89" length="11.18" shape="5538.64,7343.18 5549.79,7344.01"/>
    </edge>
    <edge id=":-10130_0" function="internal">
        <lane id=":-10130_0_0" index="0" speed="13.89" length="21.00" shape="4977.65,7638.92 4972.83,7640.69 4968.96,7643.70 4966.03,7647.93 4964.05,7653.40"/>
    </edge>
    <edge id=":-10130_1" function="internal">
        <lane id=":-10130_1_0" index="0" speed="13.89" length="29.08" shape="4977.65,7638.92 4949.85,7646.48"/>
        <lane id=":-10130_1_1" index="1" speed="13.89" length="29.08" shape="4976.96,7635.79 4948.90,7643.42"/>
        <lane id=":-10130_1_2" index="2" speed="13.89" length="29.08" shape="4976.28,7632.66 4947.95,7640.36"/>
    </edge>
    <edge id=":-10130_4" function="internal">
        <lane id=":-10130_4_0" index="0" speed="13.89" length="6.49" shape="4976.28,7632.66 4970.19,7632.94 4969.84,7632.76"/>
    </edge>
    <edge id=":-10130_16" function="internal">
        <lane id=":-10130_16_0" index="0" speed="13.89" length="17.26" shape="4969.84,7632.76 4965.76,7630.73 4962.97,7626.05 4961.82,7618.89"/>
    </edge>
    <edge id=":-10130_5" function="internal">
        <lane id=":-10130_5_0" index="0" speed="13.89" length="9.05" shape="4968.22,7618.64 4968.68,7621.15 4969.83,7622.76 4971.68,7623.47 4974.22,7623.29"/>
    </edge>
    <edge id=":-10130_6" function="internal">
        <lane id=":-10130_6_0" index="0" speed="13.89" length="34.19" shape="4965.02,7618.77 4964.88,7626.91 4964.03,7635.81 4962.65,7644.65 4960.94,7652.63"/>
    </edge>
    <edge id=":-10130_7" function="internal">
        <lane id=":-10130_7_0" index="0" speed="13.89" length="9.61" shape="4965.02,7618.77 4964.19,7626.16 4963.19,7628.09"/>
    </edge>
    <edge id=":-10130_17" function="internal">
        <lane id=":-10130_17_0" index="0" speed="13.89" length="20.26" shape="4963.19,7628.09 4961.06,7632.23 4955.65,7636.96 4947.95,7640.36"/>
    </edge>
    <edge id=":-10130_8" function="internal">
        <lane id=":-10130_8_0" index="0" speed="13.89" length="19.50" shape="4945.11,7631.20 4951.14,7628.83 4955.40,7626.01 4957.90,7622.74 4958.63,7619.01"/>
    </edge>
    <edge id=":-10130_9" function="internal">
        <lane id=":-10130_9_0" index="0" speed="13.89" length="29.89" shape="4945.11,7631.20 4974.22,7623.29"/>
        <lane id=":-10130_9_1" index="1" speed="13.89" length="29.89" shape="4946.06,7634.25 4974.91,7626.41"/>
        <lane id=":-10130_9_2" index="2" speed="13.89" length="29.89" shape="4947.01,7637.31 4975.59,7629.54"/>
    </edge>
    <edge id=":-10130_12" function="internal">
        <lane id=":-10130_12_0" index="0" speed="13.89" length="6.67" shape="4947.01,7637.31 4953.55,7637.09 4953.66,7637.16"/>
    </edge>
    <edge id=":-10130_18" function="internal">
        <lane id=":-10130_18_0" index="0" speed="13.89" length="18.72" shape="4953.66,7637.16 4958.46,7640.22 4961.13,7645.73 4960.94,7652.63"/>
    </edge>
    <edge id=":-10130_13" function="internal">
        <lane id=":-10130_13_0" index="0" speed="13.89" length="9.26" shape="4954.73,7651.09 4955.05,7648.31 4954.34,7646.62 4952.60,7646.01 4949.85,7646.48"/>
    </edge>
    <edge id=":-10130_14" function="internal">
        <lane id=":-10130_14_0" index="0" speed="13.89" length="33.30" shape="4957.84,7651.86 4959.53,7644.02 4960.88,7635.48 4961.70,7626.89 4961.82,7618.89"/>
    </edge>
    <edge id=":-10130_15" function="internal">
        <lane id=":-10130_15_0" index="0" speed="13.89" length="10.52" shape="4957.84,7651.86 4960.76,7643.16 4961.44,7642.01"/>
    </edge>
    <edge id=":-10130_19" function="internal">
        <lane id=":-10130_19_0" index="0" speed="13.89" length="19.52" shape="4961.44,7642.01 4964.70,7636.53 4969.64,7632.00 4975.59,7629.54"/>
    </edge>
    <edge id=":-10168_0" function="internal">
        <lane id=":-10168_0_0" index="0" speed="13.89" length="3.65" shape="5721.86,7369.86 5722.12,7370.91 5722.38,7371.61 5722.76,7372.24 5723.41,7373.11"/>
    </edge>
    <edge id=":-10168_1" function="internal">
        <lane id=":-10168_1_0" index="0" speed="13.89" length="5.18" shape="5719.45,7375.71 5719.49,7374.18 5719.38,7373.13 5719.13,7372.10 5718.75,7370.61"/>
    </edge>
    <edge id=":-10168_2" function="internal">
        <lane id=":-10168_2_0" index="0" speed="13.89" length="4.48" shape="5719.45,7375.71 5719.86,7372.85 5720.66,7371.47"/>
    </edge>
    <edge id=":-10168_3" function="internal">
        <lane id=":-10168_3_0" index="0" speed="13.89" length="3.39" shape="5720.66,7371.47 5721.84,7371.55 5723.41,7373.11"/>
    </edge>
    <edge id=":-10290_0" function="internal">
        <lane id=":-10290_0_0" index="0" speed="13.89" length="9.03" shape="6257.72,6537.14 6256.66,6534.89 6255.14,6533.55 6253.16,6533.11 6250.71,6533.59"/>
    </edge>
    <edge id=":-10290_1" function="internal">
        <lane id=":-10290_1_0" index="0" speed="13.89" length="20.52" shape="6257.72,6537.14 6255.68,6529.31 6254.98,6523.48 6255.62,6519.66 6257.59,6517.84"/>
    </edge>
    <edge id=":-10290_2" function="internal">
        <lane id=":-10290_2_0" index="0" speed="13.89" length="17.54" shape="6257.72,6537.14 6256.09,6530.65 6255.69,6525.78 6256.51,6522.53 6258.54,6520.89"/>
    </edge>
    <edge id=":-10290_3" function="internal">
        <lane id=":-10290_3_0" index="0" speed="13.89" length="11.36" shape="6261.40,6530.06 6250.71,6533.59"/>
        <lane id=":-10290_3_1" index="1" speed="13.89" length="11.36" shape="6260.45,6527.00 6249.66,6530.57"/>
        <lane id=":-10290_3_2" index="2" speed="13.89" length="11.36" shape="6259.49,6523.95 6248.61,6527.55"/>
    </edge>
    <edge id=":-10290_6" function="internal">
        <lane id=":-10290_6_0" index="0" speed="13.89" length="11.68" shape="6245.45,6518.48 6256.64,6514.78"/>
        <lane id=":-10290_6_1" index="1" speed="13.89" length="11.68" shape="6246.50,6521.50 6257.59,6517.84"/>
        <lane id=":-10290_6_2" index="2" speed="13.89" length="11.68" shape="6247.55,6524.52 6258.54,6520.89"/>
    </edge>
    <edge id=":-10476_0" function="internal">
        <lane id=":-10476_0_0" index="0" speed="13.89" length="19.51" shape="6146.29,7680.42 6145.06,7671.97 6143.76,7666.15 6142.39,7662.97 6140.96,7662.41"/>
    </edge>
    <edge id=":-10476_1" function="internal">
        <lane id=":-10476_1_0" index="0" speed="13.89" length="16.03" shape="6146.29,7680.42 6145.30,7673.42 6144.33,7668.56 6143.37,7665.84 6142.42,7665.25"/>
    </edge>
    <edge id=":-10476_2" function="internal">
        <lane id=":-10476_2_0" index="0" speed="13.89" length="12.60" shape="6146.29,7680.42 6145.74,7678.14 6144.71,7674.06 6143.87,7670.08 6143.89,7668.10"/>
    </edge>
    <edge id=":-10588_0" function="internal">
        <lane id=":-10588_0_0" index="0" speed="13.89" length="12.99" shape="5584.98,7196.74 5583.44,7193.31 5581.46,7190.73 5579.04,7188.99 5576.17,7188.11"/>
    </edge>
    <edge id=":-10588_1" function="internal">
        <lane id=":-10588_1_0" index="0" speed="13.89" length="16.87" shape="5584.98,7196.74 5583.89,7192.84 5583.12,7188.50 5582.79,7184.12 5583.00,7180.10"/>
    </edge>
    <edge id=":-10588_2" function="internal">
        <lane id=":-10588_2_0" index="0" speed="13.89" length="16.28" shape="5584.98,7196.74 5584.05,7192.00 5585.02,7188.78 5587.89,7187.08 5592.64,7186.89"/>
    </edge>
    <edge id=":-10588_3" function="internal">
        <lane id=":-10588_3_0" index="0" speed="13.89" length="9.26" shape="5592.33,7190.07 5589.63,7190.18 5588.02,7191.16 5587.48,7193.00 5588.01,7195.70"/>
    </edge>
    <edge id=":-10588_4" function="internal">
        <lane id=":-10588_4_0" index="0" speed="13.89" length="16.27" shape="5592.33,7190.07 5576.17,7188.11"/>
    </edge>
    <edge id=":-10588_5" function="internal">
        <lane id=":-10588_5_0" index="0" speed="13.89" length="7.25" shape="5592.33,7190.07 5587.77,7189.05 5585.61,7187.65"/>
    </edge>
    <edge id=":-10588_16" function="internal">
        <lane id=":-10588_16_0" index="0" speed="13.89" length="8.44" shape="5585.61,7187.65 5584.70,7187.05 5583.11,7184.07 5583.00,7180.10"/>
    </edge>
    <edge id=":-10588_6" function="internal">
        <lane id=":-10588_6_0" index="0" speed="13.89" length="10.38" shape="5586.17,7180.55 5586.28,7183.05 5587.39,7184.94 5589.51,7186.22 5592.64,7186.89"/>
    </edge>
    <edge id=":-10588_7" function="internal">
        <lane id=":-10588_7_0" index="0" speed="13.89" length="15.39" shape="5586.17,7180.55 5585.93,7184.34 5586.22,7188.21 5586.94,7192.04 5588.01,7195.70"/>
    </edge>
    <edge id=":-10588_8" function="internal">
        <lane id=":-10588_8_0" index="0" speed="13.89" length="6.26" shape="5586.17,7180.55 5585.07,7184.35 5583.62,7186.14"/>
    </edge>
    <edge id=":-10588_17" function="internal">
        <lane id=":-10588_17_0" index="0" speed="13.89" length="8.05" shape="5583.62,7186.14 5583.04,7186.87 5580.07,7188.12 5576.17,7188.11"/>
    </edge>
    <edge id=":-10588_9" function="internal">
        <lane id=":-10588_9_0" index="0" speed="13.89" length="9.13" shape="5576.65,7184.94 5579.12,7184.95 5581.01,7184.15 5582.30,7182.53 5583.00,7180.10"/>
    </edge>
    <edge id=":-10588_10" function="internal">
        <lane id=":-10588_10_0" index="0" speed="13.89" length="16.12" shape="5576.65,7184.94 5592.64,7186.89"/>
    </edge>
    <edge id=":-10588_11" function="internal">
        <lane id=":-10588_11_0" index="0" speed="13.89" length="5.93" shape="5576.65,7184.94 5580.39,7186.07 5582.05,7187.21"/>
    </edge>
    <edge id=":-10588_18" function="internal">
        <lane id=":-10588_18_0" index="0" speed="13.89" length="10.57" shape="5582.05,7187.21 5583.54,7188.24 5586.08,7191.45 5588.01,7195.70"/>
    </edge>
    <edge id=":-10588_12" function="internal">
        <lane id=":-10588_12_0" index="0" speed="13.89" length="10.72" shape="5578.86,7196.22 5580.14,7193.04 5580.13,7190.62 5578.80,7188.98 5576.17,7188.11"/>
    </edge>
    <edge id=":-10588_13" function="internal">
        <lane id=":-10588_13_0" index="0" speed="13.89" length="16.72" shape="5578.86,7196.22 5580.41,7192.54 5581.56,7188.37 5582.39,7184.09 5583.00,7180.10"/>
    </edge>
    <edge id=":-10588_14" function="internal">
        <lane id=":-10588_14_0" index="0" speed="13.89" length="9.32" shape="5578.86,7196.22 5581.79,7191.83 5584.76,7189.09"/>
    </edge>
    <edge id=":-10588_15" function="internal">
        <lane id=":-10588_15_0" index="0" speed="13.89" length="8.99" shape="5578.86,7196.22 5581.58,7192.23 5584.01,7190.82 5585.21,7191.46"/>
    </edge>
    <edge id=":-10588_19" function="internal">
        <lane id=":-10588_19_0" index="0" speed="13.89" length="8.36" shape="5584.76,7189.09 5585.07,7188.81 5588.68,7187.16 5592.64,7186.89"/>
    </edge>
    <edge id=":-10588_20" function="internal">
        <lane id=":-10588_20_0" index="0" speed="13.89" length="5.24" shape="5585.21,7191.46 5586.15,7191.98 5588.01,7195.70"/>
    </edge>
    <edge id=":-10820_0" function="internal">
        <lane id=":-10820_0_0" index="0" speed="13.89" length="14.54" shape="5975.91,7373.75 5961.88,7377.68"/>
        <lane id=":-10820_0_1" index="1" speed="13.89" length="14.54" shape="5975.03,7370.68 5961.03,7374.60"/>
        <lane id=":-10820_0_2" index="2" speed="13.89" length="14.54" shape="5974.15,7367.60 5960.18,7371.51"/>
    </edge>
    <edge id=":-10820_3" function="internal">
        <lane id=":-10820_3_0" index="0" speed="13.89" length="5.13" shape="5974.15,7367.60 5969.93,7367.79 5969.15,7367.34"/>
    </edge>
    <edge id=":-10820_11" function="internal">
        <lane id=":-10820_11_0" index="0" speed="13.89" length="14.99" shape="5969.15,7367.34 5966.44,7365.76 5963.71,7361.50 5961.72,7355.01"/>
    </edge>
    <edge id=":-10820_4" function="internal">
        <lane id=":-10820_4_0" index="0" speed="13.89" length="9.04" shape="5964.85,7354.34 5965.71,7356.69 5967.11,7358.14 5969.05,7358.70 5971.53,7358.37"/>
    </edge>
    <edge id=":-10820_5" function="internal">
        <lane id=":-10820_5_0" index="0" speed="13.89" length="22.36" shape="5964.85,7354.34 5966.05,7362.41 5965.82,7368.48 5964.15,7372.54 5961.03,7374.60"/>
    </edge>
    <edge id=":-10820_6" function="internal">
        <lane id=":-10820_6_0" index="0" speed="13.89" length="19.58" shape="5964.85,7354.34 5965.75,7361.04 5965.28,7366.14 5963.42,7369.63 5960.18,7371.51"/>
    </edge>
    <edge id=":-10820_7" function="internal">
        <lane id=":-10820_7_0" index="0" speed="13.89" length="9.37" shape="5957.64,7362.26 5959.88,7361.26 5961.31,7359.71 5961.92,7357.63 5961.72,7355.01"/>
    </edge>
    <edge id=":-10820_8" function="internal">
        <lane id=":-10820_8_0" index="0" speed="13.89" length="14.45" shape="5957.64,7362.26 5971.53,7358.37"/>
        <lane id=":-10820_8_1" index="1" speed="13.89" length="14.45" shape="5958.49,7365.34 5972.40,7361.44"/>
        <lane id=":-10820_8_2" index="2" speed="13.89" length="14.45" shape="5959.33,7368.43 5973.28,7364.52"/>
    </edge>
    <edge id=":-1086_0" function="internal">
        <lane id=":-1086_0_0" index="0" speed="13.89" length="13.24" shape="6535.03,6150.53 6533.32,6163.40"/>
        <lane id=":-1086_0_1" index="1" speed="13.89" length="13.24" shape="6531.88,6149.97 6530.14,6163.09"/>
        <lane id=":-1086_0_2" index="2" speed="13.89" length="13.24" shape="6528.73,6149.40 6526.95,6162.78"/>
    </edge>
    <edge id=":-1086_3" function="internal">
        <lane id=":-1086_3_0" index="0" speed="13.89" length="4.15" shape="6528.73,6149.40 6527.21,6152.53 6526.66,6152.90"/>
    </edge>
    <edge id=":-1086_11" function="internal">
        <lane id=":-1086_11_0" index="0" speed="13.89" length="15.04" shape="6526.66,6152.90 6523.96,6154.67 6518.98,6155.80 6512.27,6155.93"/>
    </edge>
    <edge id=":-1086_4" function="internal">
        <lane id=":-1086_4_0" index="0" speed="13.89" length="9.44" shape="6512.43,6152.74 6515.07,6152.53 6517.09,6151.62 6518.50,6150.01 6519.28,6147.70"/>
    </edge>
    <edge id=":-1086_5" function="internal">
        <lane id=":-1086_5_0" index="0" speed="13.89" length="22.90" shape="6512.43,6152.74 6520.52,6153.72 6526.17,6155.78 6529.38,6158.90 6530.14,6163.09"/>
    </edge>
    <edge id=":-1086_6" function="internal">
        <lane id=":-1086_6_0" index="0" speed="13.89" length="19.98" shape="6512.43,6152.74 6519.12,6153.64 6523.77,6155.62 6526.38,6158.67 6526.95,6162.78"/>
    </edge>
    <edge id=":-1086_7" function="internal">
        <lane id=":-1086_7_0" index="0" speed="13.89" length="9.04" shape="6517.40,6161.86 6517.28,6159.37 6516.39,6157.55 6514.72,6156.41 6512.27,6155.93"/>
    </edge>
    <edge id=":-1086_8" function="internal">
        <lane id=":-1086_8_0" index="0" speed="13.89" length="14.02" shape="6517.40,6161.86 6519.28,6147.70"/>
        <lane id=":-1086_8_1" index="1" speed="13.89" length="14.02" shape="6520.58,6162.17 6522.43,6148.27"/>
        <lane id=":-1086_8_2" index="2" speed="13.89" length="14.02" shape="6523.77,6162.48 6525.58,6148.83"/>
    </edge>
    <edge id=":-11014_0" function="internal">
        <lane id=":-11014_0_0" index="0" speed="13.89" length="8.80" shape="4810.56,7452.87 4808.71,7454.33 4807.73,7456.06 4807.64,7458.08 4808.42,7460.38"/>
    </edge>
    <edge id=":-11014_1" function="internal">
        <lane id=":-11014_1_0" index="0" speed="13.89" length="10.74" shape="4810.56,7452.87 4801.23,7458.19"/>
    </edge>
    <edge id=":-11014_2" function="internal">
        <lane id=":-11014_2_0" index="0" speed="13.89" length="10.72" shape="4799.65,7455.40 4808.96,7450.09"/>
    </edge>
    <edge id=":-11014_3" function="internal">
        <lane id=":-11014_3_0" index="0" speed="13.89" length="3.99" shape="4799.65,7455.40 4802.03,7454.68 4803.49,7455.06"/>
    </edge>
    <edge id=":-11014_4" function="internal">
        <lane id=":-11014_4_0" index="0" speed="13.89" length="7.47" shape="4803.49,7455.06 4804.29,7455.27 4806.42,7457.17 4808.42,7460.38"/>
    </edge>
    <edge id=":-11066_0" function="internal">
        <lane id=":-11066_0_0" index="0" speed="13.89" length="8.91" shape="5372.42,7016.09 5370.60,7014.46 5368.68,7013.74 5366.66,7013.93 5364.54,7015.04"/>
    </edge>
    <edge id=":-11066_1" function="internal">
        <lane id=":-11066_1_0" index="0" speed="13.89" length="13.84" shape="5372.42,7016.09 5370.40,7012.90 5369.87,7009.80 5370.81,7006.80 5373.22,7003.89"/>
    </edge>
    <edge id=":-11066_2" function="internal">
        <lane id=":-11066_2_0" index="0" speed="13.89" length="8.81" shape="5375.37,7006.26 5373.83,7008.11 5373.24,7010.02 5373.58,7011.99 5374.86,7014.03"/>
    </edge>
    <edge id=":-11066_3" function="internal">
        <lane id=":-11066_3_0" index="0" speed="13.89" length="13.95" shape="5375.37,7006.26 5372.68,7008.64 5370.09,7010.81 5367.42,7012.91 5364.54,7015.04"/>
    </edge>
    <edge id=":-11066_4" function="internal">
        <lane id=":-11066_4_0" index="0" speed="13.89" length="13.59" shape="5362.67,7012.44 5365.51,7010.35 5368.08,7008.33 5370.58,7006.23 5373.22,7003.89"/>
    </edge>
    <edge id=":-11066_5" function="internal">
        <lane id=":-11066_5_0" index="0" speed="13.89" length="5.62" shape="5362.67,7012.44 5365.96,7010.72 5367.85,7010.53"/>
    </edge>
    <edge id=":-11066_6" function="internal">
        <lane id=":-11066_6_0" index="0" speed="13.89" length="8.17" shape="5367.85,7010.53 5369.08,7010.41 5372.05,7011.51 5374.86,7014.03"/>
    </edge>
    <edge id=":-11072_0" function="internal">
        <lane id=":-11072_0_0" index="0" speed="16.66" length="24.92" shape="6688.78,7434.02 6689.72,7440.51 6686.83,7445.67 6681.49,7448.19 6675.11,7446.75"/>
    </edge>
    <edge id=":-11072_1" function="internal">
        <lane id=":-11072_1_0" index="0" speed="16.66" length="20.07" shape="6685.82,7435.27 6687.49,7441.13 6686.17,7444.92 6682.40,7446.06 6676.74,7444.00"/>
    </edge>
    <edge id=":-11072_2" function="internal">
        <lane id=":-11072_2_0" index="0" speed="16.66" length="13.26" shape="6682.87,7436.51 6684.56,7440.78 6684.38,7442.99 6682.31,7443.15 6678.37,7441.24"/>
    </edge>
    <edge id=":-11144_0" function="internal">
        <lane id=":-11144_0_0" index="0" speed="13.89" length="11.53" shape="6492.30,6361.40 6488.89,6362.56 6486.46,6364.15 6484.99,6366.18 6484.48,6368.65"/>
    </edge>
    <edge id=":-11144_1" function="internal">
        <lane id=":-11144_1_0" index="0" speed="13.89" length="29.69" shape="6492.30,6361.40 6486.30,6362.13 6477.49,6362.50 6468.68,6362.43 6462.69,6361.82"/>
    </edge>
    <edge id=":-11144_2" function="internal">
        <lane id=":-11144_2_0" index="0" speed="13.89" length="13.26" shape="6492.30,6361.40 6484.67,6362.42 6479.57,6361.16 6479.38,6360.91"/>
    </edge>
    <edge id=":-11144_16" function="internal">
        <lane id=":-11144_16_0" index="0" speed="13.89" length="9.86" shape="6479.38,6360.91 6476.98,6357.64 6476.92,6351.83"/>
    </edge>
    <edge id=":-11144_3" function="internal">
        <lane id=":-11144_3_0" index="0" speed="13.89" length="9.14" shape="6486.38,6353.46 6486.29,6356.14 6487.12,6357.84 6488.87,6358.56 6491.54,6358.29"/>
    </edge>
    <edge id=":-11144_4" function="internal">
        <lane id=":-11144_4_0" index="0" speed="13.89" length="15.86" shape="6486.38,6353.46 6485.54,6357.94 6484.97,6361.01 6484.62,6364.11 6484.48,6368.65"/>
        <lane id=":-11144_4_1" index="1" speed="13.89" length="15.86" shape="6483.23,6352.92 6482.36,6357.55 6481.77,6360.73 6481.42,6363.93 6481.28,6368.62"/>
        <lane id=":-11144_4_2" index="2" speed="13.89" length="15.86" shape="6480.07,6352.38 6479.19,6357.16 6478.58,6360.44 6478.22,6363.75 6478.08,6368.60"/>
    </edge>
    <edge id=":-11144_7" function="internal">
        <lane id=":-11144_7_0" index="0" speed="13.89" length="7.05" shape="6480.07,6352.38 6478.14,6357.91 6477.27,6358.74"/>
    </edge>
    <edge id=":-11144_17" function="internal">
        <lane id=":-11144_17_0" index="0" speed="13.89" length="15.84" shape="6477.27,6358.74 6474.59,6361.32 6469.44,6362.63 6462.69,6361.82"/>
    </edge>
    <edge id=":-11144_8" function="internal">
        <lane id=":-11144_8_0" index="0" speed="13.89" length="12.17" shape="6463.45,6358.71 6465.98,6358.73 6468.02,6357.41 6469.56,6354.75 6470.61,6350.75"/>
    </edge>
    <edge id=":-11144_9" function="internal">
        <lane id=":-11144_9_0" index="0" speed="13.89" length="28.18" shape="6463.45,6358.71 6469.21,6359.32 6477.50,6359.39 6485.79,6359.02 6491.54,6358.29"/>
    </edge>
    <edge id=":-11144_10" function="internal">
        <lane id=":-11144_10_0" index="0" speed="13.89" length="7.05" shape="6463.45,6358.71 6469.87,6360.69 6470.17,6360.84"/>
    </edge>
    <edge id=":-11144_18" function="internal">
        <lane id=":-11144_18_0" index="0" speed="13.89" length="11.69" shape="6470.17,6360.84 6474.45,6362.99 6477.19,6365.63 6478.08,6368.60"/>
    </edge>
    <edge id=":-11144_11" function="internal">
        <lane id=":-11144_11_0" index="0" speed="13.89" length="9.66" shape="6468.48,6368.52 6468.13,6366.13 6467.05,6364.21 6465.24,6362.78 6462.69,6361.82"/>
    </edge>
    <edge id=":-11144_12" function="internal">
        <lane id=":-11144_12_0" index="0" speed="13.89" length="17.42" shape="6468.48,6368.52 6468.63,6363.21 6469.00,6359.59 6469.65,6355.99 6470.61,6350.75"/>
        <lane id=":-11144_12_1" index="1" speed="13.89" length="17.42" shape="6471.68,6368.55 6471.83,6363.39 6472.20,6359.87 6472.83,6356.38 6473.77,6351.29"/>
        <lane id=":-11144_12_2" index="2" speed="13.89" length="17.42" shape="6474.88,6368.57 6475.03,6363.57 6475.39,6360.16 6476.01,6356.77 6476.92,6351.83"/>
    </edge>
    <edge id=":-11144_15" function="internal">
        <lane id=":-11144_15_0" index="0" speed="13.89" length="4.02" shape="6474.88,6368.57 6475.94,6365.58 6476.59,6365.03"/>
    </edge>
    <edge id=":-11144_19" function="internal">
        <lane id=":-11144_19_0" index="0" speed="13.89" length="16.61" shape="6476.59,6365.03 6479.07,6362.87 6484.27,6360.44 6491.54,6358.29"/>
    </edge>
    <edge id=":-11174_0" function="internal">
        <lane id=":-11174_0_0" index="0" speed="13.89" length="10.86" shape="6064.55,6906.23 6053.75,6907.24"/>
        <lane id=":-11174_0_1" index="1" speed="13.89" length="10.86" shape="6064.26,6903.04 6053.44,6904.05"/>
    </edge>
    <edge id=":-11174_2" function="internal">
        <lane id=":-11174_2_0" index="0" speed="13.89" length="8.88" shape="6057.60,6891.70 6058.25,6894.06 6059.48,6895.67 6061.29,6896.54 6063.68,6896.67"/>
    </edge>
    <edge id=":-11174_3" function="internal">
        <lane id=":-11174_3_0" index="0" speed="13.89" length="14.45" shape="6057.60,6891.70 6057.92,6896.90 6057.33,6900.69 6055.84,6903.08 6053.44,6904.05"/>
    </edge>
    <edge id=":-11174_4" function="internal">
        <lane id=":-11174_4_0" index="0" speed="13.89" length="10.89" shape="6052.83,6897.68 6063.68,6896.67"/>
        <lane id=":-11174_4_1" index="1" speed="13.89" length="10.89" shape="6053.14,6900.87 6063.97,6899.85"/>
    </edge>
    <edge id=":-11256_0" function="internal">
        <lane id=":-11256_0_0" index="0" speed="13.89" length="0.10" shape="5122.52,6699.83 5122.52,6699.83"/>
    </edge>
    <edge id=":-11324_0" function="internal">
        <lane id=":-11324_0_0" index="0" speed="13.89" length="13.79" shape="5297.62,6574.04 5290.15,6585.63"/>
    </edge>
    <edge id=":-11324_1" function="internal">
        <lane id=":-11324_1_0" index="0" speed="13.89" length="5.54" shape="5297.62,6574.04 5295.06,6576.80 5293.45,6577.55"/>
    </edge>
    <edge id=":-11324_6" function="internal">
        <lane id=":-11324_6_0" index="0" speed="13.89" length="8.30" shape="5293.45,6577.55 5292.20,6578.13 5289.05,6578.02 5285.61,6576.46"/>
    </edge>
    <edge id=":-11324_2" function="internal">
        <lane id=":-11324_2_0" index="0" speed="13.89" length="8.83" shape="5287.32,6573.76 5289.52,6574.75 5291.53,6574.83 5293.35,6573.98 5294.98,6572.22"/>
    </edge>
    <edge id=":-11324_3" function="internal">
        <lane id=":-11324_3_0" index="0" speed="13.89" length="13.97" shape="5287.32,6573.76 5290.32,6576.29 5291.79,6579.11 5291.73,6582.22 5290.15,6585.63"/>
    </edge>
    <edge id=":-11324_4" function="internal">
        <lane id=":-11324_4_0" index="0" speed="13.89" length="8.87" shape="5287.39,6584.00 5288.39,6581.83 5288.43,6579.86 5287.51,6578.06 5285.61,6576.46"/>
    </edge>
    <edge id=":-11324_5" function="internal">
        <lane id=":-11324_5_0" index="0" speed="13.89" length="14.02" shape="5287.39,6584.00 5294.98,6572.22"/>
    </edge>
    <edge id=":-11474_0" function="internal">
        <lane id=":-11474_0_0" index="0" speed="13.89" length="10.17" shape="5739.02,6266.67 5736.69,6265.97 5734.43,6266.21 5732.26,6267.39 5730.17,6269.52"/>
    </edge>
    <edge id=":-11474_1" function="internal">
        <lane id=":-11474_1_0" index="0" speed="13.89" length="14.54" shape="5739.02,6266.67 5726.00,6260.20"/>
    </edge>
    <edge id=":-11474_2" function="internal">
        <lane id=":-11474_2_0" index="0" speed="13.89" length="14.54" shape="5727.43,6257.33 5740.44,6263.81"/>
    </edge>
    <edge id=":-11474_3" function="internal">
        <lane id=":-11474_3_0" index="0" speed="13.89" length="6.04" shape="5727.43,6257.33 5730.92,6259.75 5731.81,6261.30"/>
    </edge>
    <edge id=":-11474_6" function="internal">
        <lane id=":-11474_6_0" index="0" speed="13.89" length="9.00" shape="5731.81,6261.30 5732.55,6262.59 5732.29,6265.84 5730.17,6269.52"/>
    </edge>
    <edge id=":-11474_4" function="internal">
        <lane id=":-11474_4_0" index="0" speed="13.89" length="9.06" shape="5727.65,6267.54 5728.94,6265.33 5729.09,6263.36 5728.11,6261.65 5726.00,6260.20"/>
    </edge>
    <edge id=":-11474_5" function="internal">
        <lane id=":-11474_5_0" index="0" speed="13.89" length="14.58" shape="5727.65,6267.54 5730.60,6264.59 5733.71,6262.98 5736.99,6262.72 5740.44,6263.81"/>
    </edge>
    <edge id=":-11534_0" function="internal">
        <lane id=":-11534_0_0" index="0" speed="13.89" length="8.08" shape="4659.85,5792.04 4658.20,5793.11 4657.01,5794.57 4656.28,5796.41 4656.00,5798.64"/>
    </edge>
    <edge id=":-11534_1" function="internal">
        <lane id=":-11534_1_0" index="0" speed="13.89" length="11.61" shape="4659.85,5792.04 4656.86,5793.27 4654.35,5793.81 4651.77,5793.72 4648.61,5793.04"/>
    </edge>
    <edge id=":-11534_2" function="internal">
        <lane id=":-11534_2_0" index="0" speed="13.89" length="7.57" shape="4652.80,5798.57 4652.57,5796.57 4651.80,5794.98 4650.48,5793.81 4648.61,5793.04"/>
    </edge>
    <edge id=":-11556_0" function="internal">
        <lane id=":-11556_0_0" index="0" speed="27.77" length="0.29" shape="5367.93,5840.32 5367.59,5840.36"/>
        <lane id=":-11556_0_1" index="1" speed="27.77" length="0.29" shape="5367.53,5837.14 5367.25,5837.18"/>
        <lane id=":-11556_0_2" index="2" speed="27.77" length="0.29" shape="5367.13,5833.97 5366.90,5833.99"/>
    </edge>
    <edge id=":-11616_0" function="internal">
        <lane id=":-11616_0_0" index="0" speed="13.89" length="8.97" shape="5599.96,7128.99 5597.50,7129.04 5595.60,7129.84 5594.26,7131.38 5593.49,7133.66"/>
    </edge>
    <edge id=":-11616_1" function="internal">
        <lane id=":-11616_1_0" index="0" speed="13.89" length="13.94" shape="5599.96,7128.99 5596.28,7128.02 5593.76,7126.11 5592.41,7123.25 5592.22,7119.45"/>
    </edge>
    <edge id=":-11616_2" function="internal">
        <lane id=":-11616_2_0" index="0" speed="13.89" length="8.87" shape="5595.40,7119.74 5595.53,7122.16 5596.39,7123.98 5597.99,7125.20 5600.33,7125.81"/>
    </edge>
    <edge id=":-11616_3" function="internal">