<?xml version="1.0" encoding="UTF-8"?>
<additional xmlns:xsi="http://www.w3.org/2001/XMLSchema-instance" xsi:noNamespaceSchemaLocation="http://sumo.dlr.de/xsd/additional_file.xsd">
    <busStop id="120" lane="--31152#0_0" startPos="259.77" endPos="269.77"/>
    <busStop id="121" lane="-31152#0_0" startPos="82.06" endPos="92.06"/>
    <busStop id="122" lane="--31152#1_0" startPos="80.17" endPos="90.17"/>
    <busStop id="123" lane="-31152#1_0" startPos="38.05" endPos="48.05"/>
    <busStop id="130" lane="--31992#5_0" startPos="25.49" endPos="35.49"/>
    <busStop id="131" lane="-31992#5_0" startPos="92.76" endPos="102.76"/>
    <busStop id="169" lane="--32064#1_0" startPos="79.49" endPos="89.49"/>
    <busStop id="170" lane="-32064#1_0" startPos="103.30" endPos="113.30"/>
    <busStop id="179" lane="--30872#6_0" startPos="42.81" endPos="52.81"/>
    <busStop id="180" lane="-30872#6_0" startPos="38.91" endPos="48.91"/>
    <busStop id="235" lane="--30842#4_0" startPos="23.14" endPos="33.14"/>
    <busStop id="236" lane="-30842#4_0" startPos="25.61" endPos="35.61"/>
    <busStop id="271" lane="--32664#0_0" startPos="41.97" endPos="51.97"/>
    <busStop id="272" lane="-32664#0_0" startPos="40.63" endPos="50.63"/>
    <busStop id="287" lane="--32750#7_0" startPos="40.94" endPos="50.94"/>
    <busStop id="288" lane="-32750#7_0" startPos="82.94" endPos="92.94"/>
    <busStop id="289" lane="-32776#4_0" startPos="36.30" endPos="46.30"/>
    <busStop id="290" lane="--32776#4_0" startPos="45.65" endPos="55.65"/>
    <busStop id="297" lane="-31602#1_0" startPos="39.85" endPos="49.85"/>
    <busStop id="298" lane="--31602#1_0" startPos="32.12" endPos="42.12"/>
    <busStop id="315" lane="--30646#4_0" startPos="41.51" endPos="51.51"/>
    <busStop id="316" lane="-30646#4_0" startPos="60.81" endPos="70.81"/>
    <busStop id="320" lane="-32750#4_0" startPos="27.68" endPos="37.68"/>
    <busStop id="331" lane="--32750#3_0" startPos="115.83" endPos="125.83"/>
    <busStop id="332" lane="-32750#3_0" startPos="37.10" endPos="47.10"/>
    <busStop id="336" lane="--32924#14_0" startPos="167.89" endPos="177.89"/>
    <busStop id="337" lane="-32924#14_0" startPos="44.43" endPos="54.43"/>
    <busStop id="384" lane="--31496#11_0" startPos="62.78" endPos="72.78"/>
    <busStop id="385" lane="-31496#11_0" startPos="81.35" endPos="91.35"/>
    <busStop id="392" lane="-31564#1_0" startPos="56.02" endPos="66.02"/>
    <busStop id="393" lane="--31564#1_0" startPos="131.21" endPos="141.21"/>
    <busStop id="398" lane="--31992#1_0" startPos="52.87" endPos="62.87"/>
    <busStop id="399" lane="-31992#1_0" startPos="58.45" endPos="68.45"/>
    <busStop id="496" lane="-32786#3_0" startPos="78.65" endPos="88.65"/>
    <busStop id="497" lane="--32786#3_0" startPos="130.05" endPos="140.05"/>
    <busStop id="50" lane="-31320#2_0" startPos="48.43" endPos="58.43"/>
    <busStop id="51" lane="--30646#3_0" startPos="51.21" endPos="61.21"/>
    <busStop id="518" lane="-31056#2_0" startPos="42.93" endPos="52.93"/>
    <busStop id="519" lane="--31056#2_0" startPos="45.32" endPos="55.32"/>
    <busStop id="52" lane="-30646#3_0" startPos="36.98" endPos="46.98"/>
    <busStop id="522" lane="-31272#7_0" startPos="87.14" endPos="97.14"/>
    <busStop id="523" lane="--31272#7_0" startPos="196.36" endPos="206.36"/>
    <busStop id="53" lane="--31496#9_0" startPos="60.64" endPos="70.64"/>
    <busStop id="538" lane="-31610#3_0" startPos="53.18" endPos="63.18"/>
    <busStop id="539" lane="--31610#3_0" startPos="69.88" endPos="79.88"/>
    <busStop id="54" lane="-31496#9_0" startPos="177.38" endPos="187.38"/>
    <busStop id="542" lane="-31952#17_0" startPos="278.56" endPos="288.56"/>
    <busStop id="543" lane="--31952#17_0" startPos="120.84" endPos="130.84"/>
    <busStop id="570" lane="--31496#14_0" startPos="80.69" endPos="90.69"/>
    <busStop id="571" lane="-31496#14_0" startPos="83.24" endPos="93.24"/>
    <busStop id="574" lane="--30684#2_0" startPos="193.96" endPos="203.96"/>
    <busStop id="575" lane="-30684#2_0" startPos="117.19" endPos="127.19"/>
    <busStop id="584" lane="-30872#1_0" startPos="40.78" endPos="50.78"/>
    <busStop id="585" lane="--30872#1_0" startPos="46.42" endPos="56.42"/>
    <busStop id="622" lane="-32776#2_0" startPos="83.58" endPos="93.58"/>
    <busStop id="623" lane="--32776#2_0" startPos="154.11" endPos="164.11"/>
    <busStop id="632" lane="-31272#8_0" startPos="232.60" endPos="242.60"/>
    <busStop id="633" lane="--31272#8_0" startPos="72.86" endPos="82.86"/>
    <busStop id="639" lane="-31812_0" startPos="152.54" endPos="162.54"/>
    <busStop id="640" lane="--31812_0" startPos="141.16" endPos="151.16"/>
    <busStop id="641" lane="-30892#8_0" startPos="38.67" endPos="48.67"/>
    <busStop id="642" lane="--30892#8_0" startPos="34.95" endPos="44.95"/>
    <busStop id="643" lane="-30892#15_0" startPos="28.36" endPos="38.36"/>
    <busStop id="644" lane="--30892#15_0" startPos="31.87" endPos="41.87"/>
    <busStop id="65" lane="--32924#10_0" startPos="48.09" endPos="58.09"/>
    <busStop id="66" lane="-32924#10_0" startPos="50.92" endPos="60.92"/>
    <busStop id="82" lane="--31992#3_0" startPos="34.02" endPos="44.02"/>
    <busStop id="83" lane="-31992#3_0" startPos="32.33" endPos="42.33"/>
    <e1Detector id="10_B_-29988" lane="-31272#5_2" pos="5.00" freq="1800.00" file="e1_begin_output.xml"/>
    <e1Detector id="1236_B_-16864" lane="-31272#6_0" pos="5.00" freq="1800.00" file="e1_begin_output.xml"/>
    <e1Detector id="1237_B_-16864" lane="-31272#6_1" pos="5.00" freq="1800.00" file="e1_begin_output.xml"/>
    <e1Detector id="1238_B_-16864" lane="-31272#6_2" pos="5.00" freq="1800.00" file="e1_begin_output.xml"/>
    <e1Detector id="1239_E_-16864" lane="-31272#5_0" pos="48.96" freq="1800.00" file="e1_end_output.xml"/>
    <e1Detector id="1240_E_-16864" lane="-31272#5_1" pos="48.96" freq="1800.00" file="e1_end_output.xml"/>
    <e1Detector id="1241_E_-16864" lane="-31272#5_2" pos="48.96" freq="1800.00" file="e1_end_output.xml"/>
    <e1Detector id="1246_E_-16864" lane="--31272#6_0" pos="222.87" freq="1800.00" file="e1_end_output.xml"/>
    <e1Detector id="1247_E_-16864" lane="--31272#6_1" pos="222.87" freq="1800.00" file="e1_end_output.xml"/>
    <e1Detector id="1248_E_-16864" lane="--31272#6_2" pos="222.87" freq="1800.00" file="e1_end_output.xml"/>
    <e1Detector id="1249_B_-16864" lane="--31272#5_0" pos="5.00" freq="1800.00" file="e1_begin_output.xml"/>
    <e1Detector id="1250_B_-16864" lane="--31272#5_1" pos="5.00" freq="1800.00" file="e1_begin_output.xml"/>
    <e1Detector id="1251_B_-16864" lane="--31272#5_2" pos="5.00" freq="1800.00" file="e1_begin_output.xml"/>
    <e1Detector id="1310_B_-16502" lane="-30944_0" pos="5.00" freq="1800.00" file="e1_begin_output.xml"/>
    <e1Detector id="1311_B_-16502" lane="-30944_1" pos="5.00" freq="1800.00" file="e1_begin_output.xml"/>
    <e1Detector id="1312_B_-16502" lane="-30944_2" pos="5.00" freq="1800.00" file="e1_begin_output.xml"/>
    <e1Detector id="1313_E_-16502" lane="-30384#7_0" pos="80.64" freq="1800.00" file="e1_end_output.xml"/>
    <e1Detector id="1314_E_-16502" lane="-30384#7_1" pos="80.64" freq="1800.00" file="e1_end_output.xml"/>
    <e1Detector id="1315_E_-16502" lane="-30384#7_2" pos="80.64" freq="1800.00" file="e1_end_output.xml"/>
    <e1Detector id="1316_E_-16502" lane="-30384#7_3" pos="80.64" freq="1800.00" file="e1_end_output.xml"/>
    <e1Detector id="1358_B_-16136" lane="--30256#3_0" pos="5.00" freq="1800.00" file="e1_begin_output.xml"/>
    <e1Detector id="1359_B_-16136" lane="--30256#3_1" pos="5.00" freq="1800.00" file="e1_begin_output.xml"/>
    <e1Detector id="1360_B_-16136" lane="--30256#3_2" pos="5.00" freq="1800.00" file="e1_begin_output.xml"/>
    <e1Detector id="1361_B_-16136" lane="-31940#0_0" pos="5.00" freq="1800.00" file="e1_begin_output.xml"/>
    <e1Detector id="1362_B_-16136" lane="-31940#0_1" pos="5.00" freq="1800.00" file="e1_begin_output.xml"/>
    <e1Detector id="1363_B_-16136" lane="-31940#0_2" pos="5.00" freq="1800.00" file="e1_begin_output.xml"/>
    <e1Detector id="1364_E_-16136" lane="-30256#3_0" pos="93.75" freq="1800.00" file="e1_end_output.xml"/>
    <e1Detector id="1365_E_-16136" lane="-30256#3_1" pos="93.75" freq="1800.00" file="e1_end_output.xml"/>
    <e1Detector id="1366_E_-16136" lane="-30256#3_2" pos="93.75" freq="1800.00" file="e1_end_output.xml"/>
    <e1Detector id="1367_E_-16136" lane="-30904_0" pos="46.20" freq="1800.00" file="e1_end_output.xml"/>
    <e1Detector id="1368_E_-16136" lane="--31940#0_0" pos="29.84" freq="1800.00" file="e1_end_output.xml"/>
    <e1Detector id="1369_E_-16136" lane="--31940#0_1" pos="29.84" freq="1800.00" file="e1_end_output.xml"/>
    <e1Detector id="1370_E_-16136" lane="--31940#0_2" pos="29.84" freq="1800.00" file="e1_end_output.xml"/>
    <e1Detector id="14_E_-29988" lane="--31272#5_0" pos="48.96" freq="1800.00" file="e1_end_output.xml"/>
    <e1Detector id="1560_E_-13968" lane="--30646#1_0" pos="142.48" freq="1800.00" file="e1_end_output.xml"/>
    <e1Detector id="1561_E_-13968" lane="--30646#1_1" pos="142.48" freq="1800.00" file="e1_end_output.xml"/>
    <e1Detector id="1564_B_-13968" lane="-31056#2_0" pos="5.00" freq="1800.00" file="e1_begin_output.xml"/>
    <e1Detector id="1565_B_-13968" lane="-31056#2_1" pos="5.00" freq="1800.00" file="e1_begin_output.xml"/>
    <e1Detector id="1566_E_-13968" lane="--31056#2_0" pos="76.42" freq="1800.00" file="e1_end_output.xml"/>
    <e1Detector id="1567_E_-13968" lane="--31056#2_1" pos="76.42" freq="1800.00" file="e1_end_output.xml"/>
    <e1Detector id="1568_E_-13968" lane="--31056#2_2" pos="76.42" freq="1800.00" file="e1_end_output.xml"/>
    <e1Detector id="1571_B_-13968" lane="-30646#1_0" pos="5.00" freq="1800.00" file="e1_begin_output.xml"/>
    <e1Detector id="1572_B_-13968" lane="-30646#1_1" pos="5.00" freq="1800.00" file="e1_begin_output.xml"/>
    <e1Detector id="1589_B_-13628" lane="-31940#2_0" pos="5.00" freq="1800.00" file="e1_begin_output.xml"/>
    <e1Detector id="1590_B_-13628" lane="-31940#2_1" pos="5.00" freq="1800.00" file="e1_begin_output.xml"/>
    <e1Detector id="1591_B_-13628" lane="-31940#2_2" pos="5.00" freq="1800.00" file="e1_begin_output.xml"/>
    <e1Detector id="1592_E_-13628" lane="-31940#1_0" pos="76.47" freq="1800.00" file="e1_end_output.xml"/>
    <e1Detector id="1593_E_-13628" lane="-31940#1_1" pos="76.47" freq="1800.00" file="e1_end_output.xml"/>
    <e1Detector id="1594_E_-13628" lane="-31940#1_2" pos="76.47" freq="1800.00" file="e1_end_output.xml"/>
    <e1Detector id="1595_E_-13628" lane="-31050_0" pos="227.91" freq="1800.00" file="e1_end_output.xml"/>
    <e1Detector id="1596_E_-13628" lane="--31940#2_0" pos="102.14" freq="1800.00" file="e1_end_output.xml"/>
    <e1Detector id="1597_E_-13628" lane="--31940#2_1" pos="102.14" freq="1800.00" file="e1_end_output.xml"/>
    <e1Detector id="1598_E_-13628" lane="--31940#2_2" pos="102.14" freq="1800.00" file="e1_end_output.xml"/>
    <e1Detector id="1599_B_-13628" lane="--31940#1_0" pos="5.00" freq="1800.00" file="e1_begin_output.xml"/>
    <e1Detector id="15_E_-29988" lane="--31272#5_1" pos="48.96" freq="1800.00" file="e1_end_output.xml"/>
    <e1Detector id="1600_B_-13628" lane="--31940#1_1" pos="5.00" freq="1800.00" file="e1_begin_output.xml"/>
    <e1Detector id="1601_B_-13628" lane="--31940#1_2" pos="5.00" freq="1800.00" file="e1_begin_output.xml"/>
    <e1Detector id="1602_B_-13628" lane="--32048_0" pos="5.00" freq="1800.00" file="e1_begin_output.xml"/>
    <e1Detector id="1615_E_-13602" lane="--32750#7_0" pos="113.49" freq="1800.00" file="e1_end_output.xml"/>
    <e1Detector id="1616_E_-13602" lane="--32750#7_1" pos="113.49" freq="1800.00" file="e1_end_output.xml"/>
    <e1Detector id="1617_E_-13602" lane="--32750#7_2" pos="113.49" freq="1800.00" file="e1_end_output.xml"/>
    <e1Detector id="1618_B_-13602" lane="--32750#6_0" pos="5.00" freq="1800.00" file="e1_begin_output.xml"/>
    <e1Detector id="1619_B_-13602" lane="--32750#6_1" pos="5.00" freq="1800.00" file="e1_begin_output.xml"/>
    <e1Detector id="1620_B_-13602" lane="--32750#6_2" pos="5.00" freq="1800.00" file="e1_begin_output.xml"/>
    <e1Detector id="1621_E_-13602" lane="--32818#3_0" pos="61.98" freq="1800.00" file="e1_end_output.xml"/>
    <e1Detector id="1622_B_-13602" lane="-32750#7_0" pos="5.00" freq="1800.00" file="e1_begin_output.xml"/>
    <e1Detector id="1623_B_-13602" lane="-32750#7_1" pos="5.00" freq="1800.00" file="e1_begin_output.xml"/>
    <e1Detector id="1624_B_-13602" lane="-32750#7_2" pos="5.00" freq="1800.00" file="e1_begin_output.xml"/>
    <e1Detector id="1625_B_-13602" lane="-32818#3_0" pos="5.00" freq="1800.00" file="e1_begin_output.xml"/>
    <e1Detector id="1626_E_-13602" lane="-32750#6_0" pos="119.48" freq="1800.00" file="e1_end_output.xml"/>
    <e1Detector id="1627_E_-13602" lane="-32750#6_1" pos="119.48" freq="1800.00" file="e1_end_output.xml"/>
    <e1Detector id="1628_E_-13602" lane="-32750#6_2" pos="119.48" freq="1800.00" file="e1_end_output.xml"/>
    <e1Detector id="1664_B_-12678" lane="--30646#4_0" pos="5.00" freq="1800.00" file="e1_begin_output.xml"/>
    <e1Detector id="1665_B_-12678" lane="--30646#4_1" pos="5.00" freq="1800.00" file="e1_begin_output.xml"/>
    <e1Detector id="1668_E_-12678" lane="-30646#4_0" pos="97.41" freq="1800.00" file="e1_end_output.xml"/>
    <e1Detector id="1669_E_-12678" lane="-30646#4_1" pos="97.41" freq="1800.00" file="e1_end_output.xml"/>
    <e1Detector id="1685_B_-12408" lane="-31272#7_0" pos="5.00" freq="1800.00" file="e1_begin_output.xml"/>
    <e1Detector id="1686_B_-12408" lane="-31272#7_1" pos="5.00" freq="1800.00" file="e1_begin_output.xml"/>
    <e1Detector id="1687_B_-12408" lane="-31272#7_2" pos="5.00" freq="1800.00" file="e1_begin_output.xml"/>
    <e1Detector id="1688_E_-12408" lane="-31272#6_0" pos="227.93" freq="1800.00" file="e1_end_output.xml"/>
    <e1Detector id="1689_E_-12408" lane="-31272#6_1" pos="227.93" freq="1800.00" file="e1_end_output.xml"/>
    <e1Detector id="1690_E_-12408" lane="-31272#6_2" pos="227.93" freq="1800.00" file="e1_end_output.xml"/>
    <e1Detector id="1691_E_-12408" lane="-30892#16_0" pos="135.78" freq="1800.00" file="e1_end_output.xml"/>
    <e1Detector id="1692_E_-12408" lane="-30892#16_1" pos="135.78" freq="1800.00" file="e1_end_output.xml"/>
    <e1Detector id="1693_E_-12408" lane="-30892#16_2" pos="135.78" freq="1800.00" file="e1_end_output.xml"/>
    <e1Detector id="1694_B_-12408" lane="-30892#17_0" pos="5.00" freq="1800.00" file="e1_begin_output.xml"/>
    <e1Detector id="1695_B_-12408" lane="-30892#17_1" pos="5.00" freq="1800.00" file="e1_begin_output.xml"/>
    <e1Detector id="1696_B_-12408" lane="-30892#17_2" pos="5.00" freq="1800.00" file="e1_begin_output.xml"/>
    <e1Detector id="1697_E_-12408" lane="--31272#7_0" pos="261.77" freq="1800.00" file="e1_end_output.xml"/>
    <e1Detector id="1698_E_-12408" lane="--31272#7_1" pos="261.77" freq="1800.00" file="e1_end_output.xml"/>
    <e1Detector id="1699_E_-12408" lane="--31272#7_2" pos="261.77" freq="1800.00" file="e1_end_output.xml"/>
    <e1Detector id="16_E_-29988" lane="--31272#5_2" pos="48.96" freq="1800.00" file="e1_end_output.xml"/>
    <e1Detector id="1700_B_-12408" lane="--31272#6_0" pos="5.00" freq="1800.00" file="e1_begin_output.xml"/>
    <e1Detector id="1701_B_-12408" lane="--31272#6_1" pos="5.00" freq="1800.00" file="e1_begin_output.xml"/>
    <e1Detector id="1702_B_-12408" lane="--31272#6_2" pos="5.00" freq="1800.00" file="e1_begin_output.xml"/>
    <e1Detector id="1703_B_-12408" lane="--30892#16_0" pos="5.00" freq="1800.00" file="e1_begin_output.xml"/>
    <e1Detector id="1704_B_-12408" lane="--30892#16_1" pos="5.00" freq="1800.00" file="e1_begin_output.xml"/>
    <e1Detector id="1705_B_-12408" lane="--30892#16_2" pos="5.00" freq="1800.00" file="e1_begin_output.xml"/>
    <e1Detector id="1706_E_-12408" lane="--30892#17_0" pos="77.39" freq="1800.00" file="e1_end_output.xml"/>
    <e1Detector id="1707_E_-12408" lane="--30892#17_1" pos="77.39" freq="1800.00" file="e1_end_output.xml"/>
    <e1Detector id="1708_E_-12408" lane="--30892#17_2" pos="77.39" freq="1800.00" file="e1_end_output.xml"/>
    <e1Detector id="1709_E_-12112" lane="--30892#13_0" pos="105.84" freq="1800.00" file="e1_end_output.xml"/>
    <e1Detector id="1710_E_-12112" lane="--30892#13_1" pos="105.84" freq="1800.00" file="e1_end_output.xml"/>
    <e1Detector id="1711_E_-12112" lane="--30892#13_2" pos="105.84" freq="1800.00" file="e1_end_output.xml"/>
    <e1Detector id="1712_B_-12112" lane="-31920_0" pos="5.00" freq="1800.00" file="e1_begin_output.xml"/>
    <e1Detector id="1713_B_-12112" lane="-30892#13_0" pos="5.00" freq="1800.00" file="e1_begin_output.xml"/>
    <e1Detector id="1714_B_-12112" lane="-30892#13_1" pos="5.00" freq="1800.00" file="e1_begin_output.xml"/>
    <e1Detector id="1715_B_-12112" lane="-30892#13_2" pos="5.00" freq="1800.00" file="e1_begin_output.xml"/>
    <e1Detector id="171_B_-28860" lane="-31346_0" pos="5.00" freq="1800.00" file="e1_begin_output.xml"/>
    <e1Detector id="172_B_-28860" lane="-31940#1_0" pos="5.00" freq="1800.00" file="e1_begin_output.xml"/>
    <e1Detector id="173_B_-28860" lane="-31940#1_1" pos="5.00" freq="1800.00" file="e1_begin_output.xml"/>
    <e1Detector id="174_B_-28860" lane="-31940#1_2" pos="5.00" freq="1800.00" file="e1_begin_output.xml"/>
    <e1Detector id="1756_B_-11632" lane="--32750#3_0" pos="5.00" freq="1800.00" file="e1_begin_output.xml"/>
    <e1Detector id="1757_B_-11632" lane="--32750#3_1" pos="5.00" freq="1800.00" file="e1_begin_output.xml"/>
    <e1Detector id="1758_B_-11632" lane="--32750#3_2" pos="5.00" freq="1800.00" file="e1_begin_output.xml"/>
    <e1Detector id="1759_E_-11632" lane="--32750#4_0" pos="38.55" freq="1800.00" file="e1_end_output.xml"/>
    <e1Detector id="175_E_-28860" lane="-31940#0_0" pos="29.84" freq="1800.00" file="e1_end_output.xml"/>
    <e1Detector id="1760_E_-11632" lane="--32750#4_1" pos="38.55" freq="1800.00" file="e1_end_output.xml"/>
    <e1Detector id="1761_E_-11632" lane="--32750#4_2" pos="38.55" freq="1800.00" file="e1_end_output.xml"/>
    <e1Detector id="1762_E_-11632" lane="-32750#3_0" pos="137.65" freq="1800.00" file="e1_end_output.xml"/>
    <e1Detector id="1763_E_-11632" lane="-32750#3_1" pos="137.65" freq="1800.00" file="e1_end_output.xml"/>
    <e1Detector id="1764_E_-11632" lane="-32750#3_2" pos="137.65" freq="1800.00" file="e1_end_output.xml"/>
    <e1Detector id="1765_B_-11632" lane="-32750#4_0" pos="5.00" freq="1800.00" file="e1_begin_output.xml"/>
    <e1Detector id="1766_B_-11632" lane="-32750#4_1" pos="5.00" freq="1800.00" file="e1_begin_output.xml"/>
    <e1Detector id="1767_B_-11632" lane="-32750#4_2" pos="5.00" freq="1800.00" file="e1_begin_output.xml"/>
    <e1Detector id="1768_B_-11632" lane="--32924#14_0" pos="5.00" freq="1800.00" file="e1_begin_output.xml"/>
    <e1Detector id="1769_B_-11632" lane="--32924#14_1" pos="5.00" freq="1800.00" file="e1_begin_output.xml"/>
    <e1Detector id="176_E_-28860" lane="-31940#0_1" pos="29.84" freq="1800.00" file="e1_end_output.xml"/>
    <e1Detector id="1770_B_-11632" lane="--32924#14_2" pos="5.00" freq="1800.00" file="e1_begin_output.xml"/>
    <e1Detector id="1771_E_-11632" lane="-32924#14_0" pos="190.69" freq="1800.00" file="e1_end_output.xml"/>
    <e1Detector id="1772_E_-11632" lane="-32924#14_1" pos="190.69" freq="1800.00" file="e1_end_output.xml"/>
    <e1Detector id="1773_E_-11632" lane="-32924#14_2" pos="190.69" freq="1800.00" file="e1_end_output.xml"/>
    <e1Detector id="177_E_-28860" lane="-31940#0_2" pos="29.84" freq="1800.00" file="e1_end_output.xml"/>
    <e1Detector id="178_E_-28860" lane="--31940#1_0" pos="76.43" freq="1800.00" file="e1_end_output.xml"/>
    <e1Detector id="179_E_-28860" lane="--31940#1_1" pos="76.43" freq="1800.00" file="e1_end_output.xml"/>
    <e1Detector id="180_E_-28860" lane="--31940#1_2" pos="76.43" freq="1800.00" file="e1_end_output.xml"/>
    <e1Detector id="181_B_-28860" lane="--31940#0_0" pos="5.00" freq="1800.00" file="e1_begin_output.xml"/>
    <e1Detector id="182_B_-28860" lane="--31940#0_1" pos="5.00" freq="1800.00" file="e1_begin_output.xml"/>
    <e1Detector id="183_B_-28860" lane="--31940#0_2" pos="5.00" freq="1800.00" file="e1_begin_output.xml"/>
    <e1Detector id="1840_B_-11144" lane="-32786#6_0" pos="5.00" freq="1800.00" file="e1_begin_output.xml"/>
    <e1Detector id="1841_E_-11144" lane="-32786#5_0" pos="25.08" freq="1800.00" file="e1_end_output.xml"/>
    <e1Detector id="1842_E_-11144" lane="--32786#6_0" pos="122.13" freq="1800.00" file="e1_end_output.xml"/>
    <e1Detector id="1843_B_-11144" lane="--32786#5_0" pos="5.00" freq="1800.00" file="e1_begin_output.xml"/>
    <e1Detector id="1844_E_-11144" lane="-30892#10_0" pos="83.88" freq="1800.00" file="e1_end_output.xml"/>
    <e1Detector id="1845_E_-11144" lane="-30892#10_1" pos="83.88" freq="1800.00" file="e1_end_output.xml"/>
    <e1Detector id="1846_E_-11144" lane="-30892#10_2" pos="83.88" freq="1800.00" file="e1_end_output.xml"/>
    <e1Detector id="1847_B_-11144" lane="-30892#11_0" pos="5.00" freq="1800.00" file="e1_begin_output.xml"/>
    <e1Detector id="1848_B_-11144" lane="-30892#11_1" pos="5.00" freq="1800.00" file="e1_begin_output.xml"/>
    <e1Detector id="1849_B_-11144" lane="-30892#11_2" pos="5.00" freq="1800.00" file="e1_begin_output.xml"/>
    <e1Detector id="1850_B_-11144" lane="--30892#10_0" pos="5.00" freq="1800.00" file="e1_begin_output.xml"/>
    <e1Detector id="1851_B_-11144" lane="--30892#10_1" pos="5.00" freq="1800.00" file="e1_begin_output.xml"/>
    <e1Detector id="1852_B_-11144" lane="--30892#10_2" pos="5.00" freq="1800.00" file="e1_begin_output.xml"/>
    <e1Detector id="1853_E_-11144" lane="--30892#11_0" pos="195.79" freq="1800.00" file="e1_end_output.xml"/>
    <e1Detector id="1854_E_-11144" lane="--30892#11_1" pos="195.79" freq="1800.00" file="e1_end_output.xml"/>
    <e1Detector id="1855_E_-11144" lane="--30892#11_2" pos="195.79" freq="1800.00" file="e1_end_output.xml"/>
    <e1Detector id="1870_E_-10820" lane="--30256#2_0" pos="92.12" freq="1800.00" file="e1_end_output.xml"/>
    <e1Detector id="1871_E_-10820" lane="--30256#2_1" pos="92.12" freq="1800.00" file="e1_end_output.xml"/>
    <e1Detector id="1872_E_-10820" lane="--30256#2_2" pos="92.12" freq="1800.00" file="e1_end_output.xml"/>
    <e1Detector id="1873_B_-10820" lane="--30256#1_0" pos="5.00" freq="1800.00" file="e1_begin_output.xml"/>
    <e1Detector id="1874_B_-10820" lane="--30256#1_1" pos="5.00" freq="1800.00" file="e1_begin_output.xml"/>
    <e1Detector id="1875_B_-10820" lane="--30256#1_2" pos="5.00" freq="1800.00" file="e1_begin_output.xml"/>
    <e1Detector id="1876_B_-10820" lane="-30256#2_0" pos="5.00" freq="1800.00" file="e1_begin_output.xml"/>
    <e1Detector id="1877_B_-10820" lane="-30256#2_1" pos="5.00" freq="1800.00" file="e1_begin_output.xml"/>
    <e1Detector id="1878_B_-10820" lane="-30256#2_2" pos="5.00" freq="1800.00" file="e1_begin_output.xml"/>
    <e1Detector id="1879_E_-10820" lane="-30256#1_0" pos="352.72" freq="1800.00" file="e1_end_output.xml"/>
    <e1Detector id="1880_E_-10820" lane="-30256#1_1" pos="352.72" freq="1800.00" file="e1_end_output.xml"/>
    <e1Detector id="1881_E_-10820" lane="-30256#1_2" pos="352.72" freq="1800.00" file="e1_end_output.xml"/>
    <e1Detector id="1882_E_-10820" lane="-32274_0" pos="118.66" freq="1800.00" file="e1_end_output.xml"/>
    <e1Detector id="1883_B_-10820" lane="--32274_0" pos="5.00" freq="1800.00" file="e1_begin_output.xml"/>
    <e1Detector id="1890_E_-10588" lane="--32160#0_0" pos="47.27" freq="1800.00" file="e1_end_output.xml"/>
    <e1Detector id="1891_E_-10588" lane="--30566#0_0" pos="156.14" freq="1800.00" file="e1_end_output.xml"/>
    <e1Detector id="1892_B_-10588" lane="-32160#0_0" pos="5.00" freq="1800.00" file="e1_begin_output.xml"/>
    <e1Detector id="1893_B_-10588" lane="-30566#0_0" pos="5.00" freq="1800.00" file="e1_begin_output.xml"/>
    <e1Detector id="1894_B_-10588" lane="--31844#0_0" pos="5.00" freq="1800.00" file="e1_begin_output.xml"/>
    <e1Detector id="1895_E_-10588" lane="--31844#1_0" pos="167.59" freq="1800.00" file="e1_end_output.xml"/>
    <e1Detector id="1896_E_-10588" lane="-31844#0_0" pos="443.57" freq="1800.00" file="e1_end_output.xml"/>
    <e1Detector id="1897_B_-10588" lane="-31844#1_0" pos="5.00" freq="1800.00" file="e1_begin_output.xml"/>
    <e1Detector id="1898_E_-10588" lane="-32840_0" pos="153.65" freq="1800.00" file="e1_end_output.xml"/>
    <e1Detector id="1971_B_-10130" lane="-32776#2_0" pos="5.00" freq="1800.00" file="e1_begin_output.xml"/>
    <e1Detector id="1972_B_-10130" lane="-32776#2_1" pos="5.00" freq="1800.00" file="e1_begin_output.xml"/>
    <e1Detector id="1973_E_-10130" lane="-32776#1_0" pos="134.17" freq="1800.00" file="e1_end_output.xml"/>
    <e1Detector id="1974_E_-10130" lane="-32776#1_1" pos="134.17" freq="1800.00" file="e1_end_output.xml"/>
    <e1Detector id="1975_B_-10130" lane="-31940#5_0" pos="5.00" freq="1800.00" file="e1_begin_output.xml"/>
    <e1Detector id="1976_B_-10130" lane="-31940#5_1" pos="5.00" freq="1800.00" file="e1_begin_output.xml"/>
    <e1Detector id="1977_B_-10130" lane="-31940#5_2" pos="5.00" freq="1800.00" file="e1_begin_output.xml"/>
    <e1Detector id="1978_E_-10130" lane="-31940#4_0" pos="151.10" freq="1800.00" file="e1_end_output.xml"/>
    <e1Detector id="1979_E_-10130" lane="-31940#4_1" pos="151.10" freq="1800.00" file="e1_end_output.xml"/>
    <e1Detector id="1980_E_-10130" lane="-31940#4_2" pos="151.10" freq="1800.00" file="e1_end_output.xml"/>
    <e1Detector id="1981_E_-10130" lane="--32776#2_0" pos="224.63" freq="1800.00" file="e1_end_output.xml"/>
    <e1Detector id="1982_E_-10130" lane="--32776#2_1" pos="224.63" freq="1800.00" file="e1_end_output.xml"/>
    <e1Detector id="1983_B_-10130" lane="--32776#1_0" pos="5.00" freq="1800.00" file="e1_begin_output.xml"/>
    <e1Detector id="1984_B_-10130" lane="--32776#1_1" pos="5.00" freq="1800.00" file="e1_begin_output.xml"/>
    <e1Detector id="1985_E_-10130" lane="--31940#5_0" pos="288.60" freq="1800.00" file="e1_end_output.xml"/>
    <e1Detector id="1986_E_-10130" lane="--31940#5_1" pos="288.60" freq="1800.00" file="e1_end_output.xml"/>
    <e1Detector id="1987_E_-10130" lane="--31940#5_2" pos="288.60" freq="1800.00" file="e1_end_output.xml"/>
    <e1Detector id="1988_B_-10130" lane="--31940#4_0" pos="5.00" freq="1800.00" file="e1_begin_output.xml"/>
    <e1Detector id="1989_B_-10130" lane="--31940#4_1" pos="5.00" freq="1800.00" file="e1_begin_output.xml"/>
    <e1Detector id="1990_B_-10130" lane="--31940#4_2" pos="5.00" freq="1800.00" file="e1_begin_output.xml"/>
    <e1Detector id="2005_B_-9490" lane="-32786#0_0" pos="5.00" freq="1800.00" file="e1_begin_output.xml"/>
    <e1Detector id="2006_E_-9490" lane="-30872#8_0" pos="230.11" freq="1800.00" file="e1_end_output.xml"/>
    <e1Detector id="2007_E_-9490" lane="-30872#8_1" pos="230.11" freq="1800.00" file="e1_end_output.xml"/>
    <e1Detector id="2008_E_-9490" lane="--32786#0_0" pos="91.69" freq="1800.00" file="e1_end_output.xml"/>
    <e1Detector id="2009_B_-9490" lane="-30872#9_0" pos="5.00" freq="1800.00" file="e1_begin_output.xml"/>
    <e1Detector id="2010_B_-9490" lane="-30872#9_1" pos="5.00" freq="1800.00" file="e1_begin_output.xml"/>
    <e1Detector id="2011_B_-9490" lane="--30872#8_0" pos="5.00" freq="1800.00" file="e1_begin_output.xml"/>
    <e1Detector id="2012_B_-9490" lane="--30872#8_1" pos="5.00" freq="1800.00" file="e1_begin_output.xml"/>
    <e1Detector id="2013_E_-9490" lane="--30872#9_0" pos="161.23" freq="1800.00" file="e1_end_output.xml"/>
    <e1Detector id="2014_E_-9490" lane="--30872#9_1" pos="161.23" freq="1800.00" file="e1_end_output.xml"/>
    <e1Detector id="2043_B_-9144" lane="-32924#7_0" pos="5.00" freq="1800.00" file="e1_begin_output.xml"/>
    <e1Detector id="2044_B_-9144" lane="-32924#7_1" pos="5.00" freq="1800.00" file="e1_begin_output.xml"/>
    <e1Detector id="2045_B_-9144" lane="-32924#7_2" pos="5.00" freq="1800.00" file="e1_begin_output.xml"/>
    <e1Detector id="2049_E_-9144" lane="--32924#7_0" pos="34.32" freq="1800.00" file="e1_end_output.xml"/>
    <e1Detector id="2050_E_-9144" lane="--32924#7_1" pos="34.32" freq="1800.00" file="e1_end_output.xml"/>
    <e1Detector id="2051_E_-9144" lane="--32924#7_2" pos="34.32" freq="1800.00" file="e1_end_output.xml"/>
    <e1Detector id="2052_B_-9144" lane="-30384#0_0" pos="5.00" freq="1800.00" file="e1_begin_output.xml"/>
    <e1Detector id="2053_B_-9144" lane="-30384#0_1" pos="5.00" freq="1800.00" file="e1_begin_output.xml"/>
    <e1Detector id="2057_B_-8782" lane="--32924#8_0" pos="5.00" freq="1800.00" file="e1_begin_output.xml"/>
    <e1Detector id="2058_B_-8782" lane="--32924#8_1" pos="5.00" freq="1800.00" file="e1_begin_output.xml"/>
    <e1Detector id="2059_B_-8782" lane="--32924#8_2" pos="5.00" freq="1800.00" file="e1_begin_output.xml"/>
    <e1Detector id="2060_E_-8782" lane="-32924#8_0" pos="88.58" freq="1800.00" file="e1_end_output.xml"/>
    <e1Detector id="2061_E_-8782" lane="-32924#8_1" pos="88.58" freq="1800.00" file="e1_end_output.xml"/>
    <e1Detector id="2062_E_-8782" lane="-32924#8_2" pos="88.58" freq="1800.00" file="e1_end_output.xml"/>
    <e1Detector id="2063_E_-8782" lane="-30892#9_0" pos="30.69" freq="1800.00" file="e1_end_output.xml"/>
    <e1Detector id="2064_E_-8782" lane="-30892#9_1" pos="30.69" freq="1800.00" file="e1_end_output.xml"/>
    <e1Detector id="2065_E_-8782" lane="-30892#9_2" pos="30.69" freq="1800.00" file="e1_end_output.xml"/>
    <e1Detector id="2066_B_-8782" lane="-30892#10_0" pos="5.00" freq="1800.00" file="e1_begin_output.xml"/>
    <e1Detector id="2067_B_-8782" lane="-30892#10_1" pos="5.00" freq="1800.00" file="e1_begin_output.xml"/>
    <e1Detector id="2068_B_-8782" lane="-30892#10_2" pos="5.00" freq="1800.00" file="e1_begin_output.xml"/>