<!-- generated with cutRoutes.py for lust.net.xml from ['buslines.rou.xml'] -->
<routes xmlns:xsi="http://www.w3.org/2001/XMLSchema-instance" xsi:noNamespaceSchemaLocation="http://sumo.dlr.de/xsd/routes_file.xsd">
    <vehicle arrivalPos="-1.00" color="green" depart="14456.00" departLane="best" departPos="0.00" id="AVL---_14_1" type="bus">
        <route edges="--30892#24 --30892#23 --30892#22 --30892#21 --30892#20"/>
    </vehicle>
    <vehicle arrivalPos="-1.00" color="green" depart="14480.32" departLane="best" departPos="0.00" id="AVL---_24_0" type="bus">
        <route edges="-30892#20 -30892#21 -30892#22 -30892#23 -30892#24 -30892#25 -30892#26"/>
    </vehicle>
    <vehicle arrivalPos="-1.00" color="green" depart="14511.23" departLane="best" departPos="0.00" id="AVL---_24_1" type="bus">
        <route edges="--30892#26 --30892#25 --30892#24 --30892#23 --30892#22 --30892#21 --30892#20"/>
    </vehicle>
    <vehicle arrivalPos="-1.00" color="green" depart="14562.61" departLane="best" departPos="0.00" id="AVL---_4_0" type="bus">
        <route edges="--31066#8 --30892#21 --30892#20"/>
    </vehicle>
    <vehicle arrivalPos="-1.00" color="green" depart="14581.36" departLane="best" departPos="0.00" id="AVL---_2_0" type="bus">
        <route edges="--32558 -30832#0 -30832#1 -31814 -32984#0 -32984#1 -32984#2 -32528#0 -32528#1 -32528#2 -32528#3 -30968#2 -30968#3 -30348#2 -30348#3 -30348#4 -30348#5 -32914#2 -32914#3 -31066#0 -31066#1 -31066#2 -31066#3 -31066#4 -31066#5"/>
    </vehicle>
    <vehicle arrivalPos="-1.00" color="green" depart="14595.61" departLane="best" departPos="0.00" id="AVL---_21_0" type="bus">
        <route edges="--30892#26 --30892#25 --30892#24 --30892#23 --30892#22 --30892#21 --30892#20"/>
    </vehicle>
    <vehicle arrivalPos="-1.00" color="green" depart="14609.68" departLane="best" departPos="0.00" id="AVL---_18_0" type="bus">
        <route edges="--30892#26 --30892#25 --30892#24 --30892#23 --30892#22 --31066#7 --31066#6"/>
    </vehicle>
    <vehicle arrivalPos="-1.00" color="green" depart="14710.62" departLane="best" departPos="0.00" id="AVL---_2_1" type="bus">
        <route edges="--31066#5 --31066#4 --31066#3 --31066#2 --31066#1 --31066#0 -32914#1 --30348#5 --30348#4 --30348#3 --30348#2 --30968#3 --30346#0 -30892#25 -32558"/>
    </vehicle>
    <vehicle arrivalPos="-1.00" color="green" depart="14745.05" departLane="best" departPos="0.00" id="AVL---_4_1" type="bus">
        <route edges="-30892#20 -30892#21 -31066#8"/>
    </vehicle>
    <vehicle arrivalPos="-1.00" color="green" depart="14973.38" departLane="best" departPos="0.00" id="AVL---_21_1" type="bus">
        <route edges="-30892#20 -30892#21 -30892#22 -30892#23 -30892#24 -30892#25 -30892#26"/>
    </vehicle>
    <vehicle arrivalPos="-1.00" color="green" depart="15015.56" departLane="best" departPos="0.00" id="AVL---_18_1" type="bus">
        <route edges="-31066#6 -31066#7 -30892#22 -30892#23 -30892#24 -30892#25 -30892#26"/>
    </vehicle>
    <vehicle arrivalPos="-1.00" color="green" depart="15092.60" departLane="best" departPos="0.00" id="AVL---_14_0" type="bus">
        <route edges="-30892#20 -30892#21 -30892#22 -30892#23 -30892#24"/>
    </vehicle>
    <vehicle arrivalPos="-1.00" color="green" depart="16256.00" departLane="best" departPos="0.00" id="AVL---_14_3" type="bus">
        <route edges="--30892#24 --30892#23 --30892#22 --30892#21 --30892#20"/>
    </vehicle>
    <vehicle arrivalPos="-1.00" color="green" depart="16280.32" departLane="best" departPos="0.00" id="AVL---_24_2" type="bus">
        <route edges="-30892#20 -30892#21 -30892#22 -30892#23 -30892#24 -30892#25 -30892#26"/>
    </vehicle>
    <vehicle arrivalPos="-1.00" color="green" depart="16311.23" departLane="best" departPos="0.00" id="AVL---_24_3" type="bus">
        <route edges="--30892#26 --30892#25 --30892#24 --30892#23 --30892#22 --30892#21 --30892#20"/>
    </vehicle>
    <vehicle arrivalPos="-1.00" color="green" depart="16362.61" departLane="best" departPos="0.00" id="AVL---_4_2" type="bus">
        <route edges="--31066#8 --30892#21 --30892#20"/>
    </vehicle>
    <vehicle arrivalPos="-1.00" color="green" depart="16381.36" departLane="best" departPos="0.00" id="AVL---_2_2" type="bus">
        <route edges="--32558 -30832#0 -30832#1 -31814 -32984#0 -32984#1 -32984#2 -32528#0 -32528#1 -32528#2 -32528#3 -30968#2 -30968#3 -30348#2 -30348#3 -30348#4 -30348#5 -32914#2 -32914#3 -31066#0 -31066#1 -31066#2 -31066#3 -31066#4 -31066#5"/>
    </vehicle>
    <vehicle arrivalPos="-1.00" color="green" depart="16395.61" departLane="best" departPos="0.00" id="AVL---_21_2" type="bus">
        <route edges="--30892#26 --30892#25 --30892#24 --30892#23 --30892#22 --30892#21 --30892#20"/>
    </vehicle>
    <vehicle arrivalPos="-1.00" color="green" depart="16409.68" departLane="best" departPos="0.00" id="AVL---_18_2" type="bus">
        <route edges="--30892#26 --30892#25 --30892#24 --30892#23 --30892#22 --31066#7 --31066#6"/>
    </vehicle>
    <vehicle arrivalPos="-1.00" color="green" depart="16510.62" departLane="best" departPos="0.00" id="AVL---_2_3" type="bus">
        <route edges="--31066#5 --31066#4 --31066#3 --31066#2 --31066#1 --31066#0 -32914#1 --30348#5 --30348#4 --30348#3 --30348#2 --30968#3 --30346#0 -30892#25 -32558"/>
    </vehicle>
    <vehicle arrivalPos="-1.00" color="green" depart="16545.05" departLane="best" departPos="0.00" id="AVL---_4_3" type="bus">
        <route edges="-30892#20 -30892#21 -31066#8"/>
    </vehicle>
    <vehicle arrivalPos="-1.00" color="green" depart="16773.38" departLane="best" departPos="0.00" id="AVL---_21_3" type="bus">
        <route edges="-30892#20 -30892#21 -30892#22 -30892#23 -30892#24 -30892#25 -30892#26"/>
    </vehicle>
    <vehicle arrivalPos="-1.00" color="green" depart="16815.56" departLane="best" departPos="0.00" id="AVL---_18_3" type="bus">
        <route edges="-31066#6 -31066#7 -30892#22 -30892#23 -30892#24 -30892#25 -30892#26"/>
    </vehicle>
    <vehicle arrivalPos="-1.00" color="green" depart="16892.60" departLane="best" departPos="0.00" id="AVL---_14_2" type="bus">
        <route edges="-30892#20 -30892#21 -30892#22 -30892#23 -30892#24"/>
    </vehicle>
    <vehicle arrivalPos="-1.00" color="green" depart="18056.00" departLane="best" departPos="0.00" id="AVL---_14_5" type="bus">
        <route edges="--30892#24 --30892#23 --30892#22 --30892#21 --30892#20"/>
    </vehicle>
    <vehicle arrivalPos="-1.00" color="green" depart="18080.32" departLane="best" departPos="0.00" id="AVL---_24_4" type="bus">
        <route edges="-30892#20 -30892#21 -30892#22 -30892#23 -30892#24 -30892#25 -30892#26"/>
    </vehicle>
    <vehicle arrivalPos="-1.00" color="green" depart="18111.23" departLane="best" departPos="0.00" id="AVL---_24_5" type="bus">
        <route edges="--30892#26 --30892#25 --30892#24 --30892#23 --30892#22 --30892#21 --30892#20"/>
    </vehicle>
    <vehicle arrivalPos="-1.00" color="green" depart="18162.61" departLane="best" departPos="0.00" id="AVL---_4_4" type="bus">
        <route edges="--31066#8 --30892#21 --30892#20"/>
    </vehicle>
    <vehicle arrivalPos="-1.00" color="green" depart="18181.36" departLane="best" departPos="0.00" id="AVL---_2_4" type="bus">
        <route edges="--32558 -30832#0 -30832#1 -31814 -32984#0 -32984#1 -32984#2 -32528#0 -32528#1 -32528#2 -32528#3 -30968#2 -30968#3 -30348#2 -30348#3 -30348#4 -30348#5 -32914#2 -32914#3 -31066#0 -31066#1 -31066#2 -31066#3 -31066#4 -31066#5"/>
    </vehicle>
    <vehicle arrivalPos="-1.00" color="green" depart="18195.61" departLane="best" departPos="0.00" id="AVL---_21_4" type="bus">
        <route edges="--30892#26 --30892#25 --30892#24 --30892#23 --30892#22 --30892#21 --30892#20"/>
    </vehicle>
    <vehicle arrivalPos="-1.00" color="green" depart="18209.68" departLane="best" departPos="0.00" id="AVL---_18_4" type="bus">
        <route edges="--30892#26 --30892#25 --30892#24 --30892#23 --30892#22 --31066#7 --31066#6"/>
    </vehicle>
    <vehicle arrivalPos="-1.00" color="green" depart="18310.62" departLane="best" departPos="0.00" id="AVL---_2_5" type="bus">
        <route edges="--31066#5 --31066#4 --31066#3 --31066#2 --31066#1 --31066#0 -32914#1 --30348#5 --30348#4 --30348#3 --30348#2 --30968#3 --30346#0 -30892#25 -32558"/>
    </vehicle>
    <vehicle arrivalPos="-1.00" color="green" depart="18345.05" departLane="best" departPos="0.00" id="AVL---_4_5" type="bus">
        <route edges="-30892#20 -30892#21 -31066#8"/>
    </vehicle>
    <vehicle arrivalPos="-1.00" color="green" depart="18573.38" departLane="best" departPos="0.00" id="AVL---_21_5" type="bus">
        <route edges="-30892#20 -30892#21 -30892#22 -30892#23 -30892#24 -30892#25 -30892#26"/>
    </vehicle>
    <vehicle arrivalPos="-1.00" color="green" depart="18615.56" departLane="best" departPos="0.00" id="AVL---_18_5" type="bus">
        <route edges="-31066#6 -31066#7 -30892#22 -30892#23 -30892#24 -30892#25 -30892#26"/>
    </vehicle>
    <vehicle arrivalPos="-1.00" color="green" depart="18692.60" departLane="best" departPos="0.00" id="AVL---_14_4" type="bus">
        <route edges="-30892#20 -30892#21 -30892#22 -30892#23 -30892#24"/>
    </vehicle>
    <vehicle arrivalPos="-1.00" color="green" depart="19856.00" departLane="best" departPos="0.00" id="AVL---_14_7" type="bus">
        <route edges="--30892#24 --30892#23 --30892#22 --30892#21 --30892#20"/>
    </vehicle>
    <vehicle arrivalPos="-1.00" color="green" depart="19880.32" departLane="best" departPos="0.00" id="AVL---_24_6" type="bus">
        <route edges="-30892#20 -30892#21 -30892#22 -30892#23 -30892#24 -30892#25 -30892#26"/>
    </vehicle>
    <vehicle arrivalPos="-1.00" color="green" depart="19911.23" departLane="best" departPos="0.00" id="AVL---_24_7" type="bus">
        <route edges="--30892#26 --30892#25 --30892#24 --30892#23 --30892#22 --30892#21 --30892#20"/>
    </vehicle>
    <vehicle arrivalPos="-1.00" color="green" depart="19962.61" departLane="best" departPos="0.00" id="AVL---_4_6" type="bus">
        <route edges="--31066#8 --30892#21 --30892#20"/>
    </vehicle>
    <vehicle arrivalPos="-1.00" color="green" depart="19981.36" departLane="best" departPos="0.00" id="AVL---_2_6" type="bus">
        <route edges="--32558 -30832#0 -30832#1 -31814 -32984#0 -32984#1 -32984#2 -32528#0 -32528#1 -32528#2 -32528#3 -30968#2 -30968#3 -30348#2 -30348#3 -30348#4 -30348#5 -32914#2 -32914#3 -31066#0 -31066#1 -31066#2 -31066#3 -31066#4 -31066#5"/>
    </vehicle>
    <vehicle arrivalPos="-1.00" color="green" depart="19995.61" departLane="best" departPos="0.00" id="AVL---_21_6" type="bus">
        <route edges="--30892#26 --30892#25 --30892#24 --30892#23 --30892#22 --30892#21 --30892#20"/>
    </vehicle>
    <vehicle arrivalPos="-1.00" color="green" depart="20009.68" departLane="best" departPos="0.00" id="AVL---_18_6" type="bus">
        <route edges="--30892#26 --30892#25 --30892#24 --30892#23 --30892#22 --31066#7 --31066#6"/>
    </vehicle>
    <vehicle arrivalPos="-1.00" color="green" depart="20110.62" departLane="best" departPos="0.00" id="AVL---_2_7" type="bus">
        <route edges="--31066#5 --31066#4 --31066#3 --31066#2 --31066#1 --31066#0 -32914#1 --30348#5 --30348#4 --30348#3 --30348#2 --30968#3 --30346#0 -30892#25 -32558"/>
    </vehicle>
    <vehicle arrivalPos="-1.00" color="green" depart="20145.05" departLane="best" departPos="0.00" id="AVL---_4_7" type="bus">
        <route edges="-30892#20 -30892#21 -31066#8"/>
    </vehicle>
    <vehicle arrivalPos="-1.00" color="green" depart="20373.38" departLane="best" departPos="0.00" id="AVL---_21_7" type="bus">
        <route edges="-30892#20 -30892#21 -30892#22 -30892#23 -30892#24 -30892#25 -30892#26"/>
    </vehicle>
    <vehicle arrivalPos="-1.00" color="green" depart="20415.56" departLane="best" departPos="0.00" id="AVL---_18_7" type="bus">
        <route edges="-31066#6 -31066#7 -30892#22 -30892#23 -30892#24 -30892#25 -30892#26"/>
    </vehicle>
    <vehicle arrivalPos="-1.00" color="green" depart="20492.60" departLane="best" departPos="0.00" id="AVL---_14_6" type="bus">
        <route edges="-30892#20 -30892#21 -30892#22 -30892#23 -30892#24"/>
    </vehicle>
    <vehicle arrivalPos="-1.00" color="green" depart="21656.00" departLane="best" departPos="0.00" id="AVL---_14_9" type="bus">
        <route edges="--30892#24 --30892#23 --30892#22 --30892#21 --30892#20"/>
    </vehicle>
    <vehicle arrivalPos="-1.00" color="green" depart="21680.32" departLane="best" departPos="0.00" id="AVL---_24_8" type="bus">
        <route edges="-30892#20 -30892#21 -30892#22 -30892#23 -30892#24 -30892#25 -30892#26"/>
    </vehicle>
    <vehicle arrivalPos="-1.00" color="green" depart="21711.23" departLane="best" departPos="0.00" id="AVL---_24_9" type="bus">
        <route edges="--30892#26 --30892#25 --30892#24 --30892#23 --30892#22 --30892#21 --30892#20"/>
    </vehicle>
    <vehicle arrivalPos="-1.00" color="green" depart="21762.61" departLane="best" departPos="0.00" id="AVL---_4_8" type="bus">
        <route edges="--31066#8 --30892#21 --30892#20"/>
    </vehicle>
    <vehicle arrivalPos="-1.00" color="green" depart="21781.36" departLane="best" departPos="0.00" id="AVL---_2_8" type="bus">
        <route edges="--32558 -30832#0 -30832#1 -31814 -32984#0 -32984#1 -32984#2 -32528#0 -32528#1 -32528#2 -32528#3 -30968#2 -30968#3 -30348#2 -30348#3 -30348#4 -30348#5 -32914#2 -32914#3 -31066#0 -31066#1 -31066#2 -31066#3 -31066#4 -31066#5"/>
    </vehicle>
    <vehicle arrivalPos="-1.00" color="green" depart="21795.61" departLane="best" departPos="0.00" id="AVL---_21_8" type="bus">
        <route edges="--30892#26 --30892#25 --30892#24 --30892#23 --30892#22 --30892#21 --30892#20"/>
    </vehicle>
    <vehicle arrivalPos="-1.00" color="green" depart="21809.68" departLane="best" departPos="0.00" id="AVL---_18_8" type="bus">
        <route edges="--30892#26 --30892#25 --30892#24 --30892#23 --30892#22 --31066#7 --31066#6"/>
    </vehicle>
    <vehicle arrivalPos="-1.00" color="green" depart="21910.62" departLane="best" departPos="0.00" id="AVL---_2_9" type="bus">
        <route edges="--31066#5 --31066#4 --31066#3 --31066#2 --31066#1 --31066#0 -32914#1 --30348#5 --30348#4 --30348#3 --30348#2 --30968#3 --30346#0 -30892#25 -32558"/>
    </vehicle>
    <vehicle arrivalPos="-1.00" color="green" depart="21945.05" departLane="best" departPos="0.00" id="AVL---_4_9" type="bus">
        <route edges="-30892#20 -30892#21 -31066#8"/>
    </vehicle>
    <vehicle arrivalPos="-1.00" color="green" depart="22173.38" departLane="best" departPos="0.00" id="AVL---_21_9" type="bus">
        <route edges="-30892#20 -30892#21 -30892#22 -30892#23 -30892#24 -30892#25 -30892#26"/>
    </vehicle>
    <vehicle arrivalPos="-1.00" color="green" depart="22215.56" departLane="best" departPos="0.00" id="AVL---_18_9" type="bus">
        <route edges="-31066#6 -31066#7 -30892#22 -30892#23 -30892#24 -30892#25 -30892#26"/>
    </vehicle>
    <vehicle arrivalPos="-1.00" color="green" depart="22292.60" departLane="best" departPos="0.00" id="AVL---_14_8" type="bus">
        <route edges="-30892#20 -30892#21 -30892#22 -30892#23 -30892#24"/>
    </vehicle>
    <vehicle arrivalPos="-1.00" color="green" depart="23456.00" departLane="best" departPos="0.00" id="AVL---_14_11" type="bus">
        <route edges="--30892#24 --30892#23 --30892#22 --30892#21 --30892#20"/>
    </vehicle>
    <vehicle arrivalPos="-1.00" color="green" depart="23480.32" departLane="best" departPos="0.00" id="AVL---_24_10" type="bus">
        <route edges="-30892#20 -30892#21 -30892#22 -30892#23 -30892#24 -30892#25 -30892#26"/>
    </vehicle>
    <vehicle arrivalPos="-1.00" color="green" depart="23511.23" departLane="best" departPos="0.00" id="AVL---_24_11" type="bus">
        <route edges="--30892#26 --30892#25 --30892#24 --30892#23 --30892#22 --30892#21 --30892#20"/>
    </vehicle>
    <vehicle arrivalPos="-1.00" color="green" depart="23562.61" departLane="best" departPos="0.00" id="AVL---_4_10" type="bus">
        <route edges="--31066#8 --30892#21 --30892#20"/>
    </vehicle>
    <vehicle arrivalPos="-1.00" color="green" depart="23581.36" departLane="best" departPos="0.00" id="AVL---_2_10" type="bus">
        <route edges="--32558 -30832#0 -30832#1 -31814 -32984#0 -32984#1 -32984#2 -32528#0 -32528#1 -32528#2 -32528#3 -30968#2 -30968#3 -30348#2 -30348#3 -30348#4 -30348#5 -32914#2 -32914#3 -31066#0 -31066#1 -31066#2 -31066#3 -31066#4 -31066#5"/>
    </vehicle>
    <vehicle arrivalPos="-1.00" color="green" depart="23595.61" departLane="best" departPos="0.00" id="AVL---_21_10" type="bus">
        <route edges="--30892#26 --30892#25 --30892#24 --30892#23 --30892#22 --30892#21 --30892#20"/>
    </vehicle>
    <vehicle arrivalPos="-1.00" color="green" depart="23609.68" departLane="best" departPos="0.00" id="AVL---_18_10" type="bus">
        <route edges="--30892#26 --30892#25 --30892#24 --30892#23 --30892#22 --31066#7 --31066#6"/>
    </vehicle>
    <vehicle arrivalPos="-1.00" color="green" depart="23710.62" departLane="best" departPos="0.00" id="AVL---_2_11" type="bus">
        <route edges="--31066#5 --31066#4 --31066#3 --31066#2 --31066#1 --31066#0 -32914#1 --30348#5 --30348#4 --30348#3 --30348#2 --30968#3 --30346#0 -30892#25 -32558"/>
    </vehicle>
    <vehicle arrivalPos="-1.00" color="green" depart="23745.05" departLane="best" departPos="0.00" id="AVL---_4_11" type="bus">
        <route edges="-30892#20 -30892#21 -31066#8"/>
    </vehicle>
    <vehicle arrivalPos="-1.00" color="green" depart="23973.38" departLane="best" departPos="0.00" id="AVL---_21_11" type="bus">
        <route edges="-30892#20 -30892#21 -30892#22 -30892#23 -30892#24 -30892#25 -30892#26"/>
    </vehicle>
    <vehicle arrivalPos="-1.00" color="green" depart="24015.56" departLane="best" departPos="0.00" id="AVL---_18_11" type="bus">
        <route edges="-31066#6 -31066#7 -30892#22 -30892#23 -30892#24 -30892#25 -30892#26"/>
    </vehicle>
    <vehicle arrivalPos="-1.00" color="green" depart="24092.60" departLane="best" departPos="0.00" id="AVL---_14_10" type="bus">
        <route edges="-30892#20 -30892#21 -30892#22 -30892#23 -30892#24"/>
    </vehicle>
    <vehicle arrivalPos="-1.00" color="green" depart="25256.00" departLane="best" departPos="0.00" id="AVL---_14_13" type="bus">
        <route edges="--30892#24 --30892#23 --30892#22 --30892#21 --30892#20"/>
    </vehicle>
    <vehicle arrivalPos="-1.00" color="green" depart="25280.32" departLane="best" departPos="0.00" id="AVL---_24_12" type="bus">
        <route edges="-30892#20 -30892#21 -30892#22 -30892#23 -30892#24 -30892#25 -30892#26"/>
    </vehicle>
    <vehicle arrivalPos="-1.00" color="green" depart="25311.23" departLane="best" departPos="0.00" id="AVL---_24_13" type="bus">
        <route edges="--30892#26 --30892#25 --30892#24 --30892#23 --30892#22 --30892#21 --30892#20"/>
    </vehicle>
    <vehicle arrivalPos="-1.00" color="green" depart="25362.61" departLane="best" departPos="0.00" id="AVL---_4_12" type="bus">
        <route edges="--31066#8 --30892#21 --30892#20"/>
    </vehicle>
    <vehicle arrivalPos="-1.00" color="green" depart="25381.36" departLane="best" departPos="0.00" id="AVL---_2_12" type="bus">
        <route edges="--32558 -30832#0 -30832#1 -31814 -32984#0 -32984#1 -32984#2 -32528#0 -32528#1 -32528#2 -32528#3 -30968#2 -30968#3 -30348#2 -30348#3 -30348#4 -30348#5 -32914#2 -32914#3 -31066#0 -31066#1 -31066#2 -31066#3 -31066#4 -31066#5"/>
    </vehicle>
    <vehicle arrivalPos="-1.00" color="green" depart="25395.61" departLane="best" departPos="0.00" id="AVL---_21_12" type="bus">
        <route edges="--30892#26 --30892#25 --30892#24 --30892#23 --30892#22 --30892#21 --30892#20"/>
    </vehicle>
    <vehicle arrivalPos="-1.00" color="green" depart="25409.68" departLane="best" departPos="0.00" id="AVL---_18_12" type="bus">
        <route edges="--30892#26 --30892#25 --30892#24 --30892#23 --30892#22 --31066#7 --31066#6"/>
    </vehicle>
    <vehicle arrivalPos="-1.00" color="green" depart="25510.62" departLane="best" departPos="0.00" id="AVL---_2_13" type="bus">
        <route edges="--31066#5 --31066#4 --31066#3 --31066#2 --31066#1 --31066#0 -32914#1 --30348#5 --30348#4 --30348#3 --30348#2 --30968#3 --30346#0 -30892#25 -32558"/>
    </vehicle>
    <vehicle arrivalPos="-1.00" color="green" depart="25545.05" departLane="best" departPos="0.00" id="AVL---_4_13" type="bus">
        <route edges="-30892#20 -30892#21 -31066#8"/>
    </vehicle>
    <vehicle arrivalPos="-1.00" color="green" depart="25773.38" departLane="best" departPos="0.00" id="AVL---_21_13" type="bus">
        <route edges="-30892#20 -30892#21 -30892#22 -30892#23 -30892#24 -30892#25 -30892#26"/>
    </vehicle>
    <vehicle arrivalPos="-1.00" color="green" depart="25815.56" departLane="best" departPos="0.00" id="AVL---_18_13" type="bus">
        <route edges="-31066#6 -31066#7 -30892#22 -30892#23 -30892#24 -30892#25 -30892#26"/>
    </vehicle>
    <vehicle arrivalPos="-1.00" color="green" depart="25892.60" departLane="best" departPos="0.00" id="AVL---_14_12" type="bus">
        <route edges="-30892#20 -30892#21 -30892#22 -30892#23 -30892#24"/>
    </vehicle>
    <vehicle arrivalPos="-1.00" color="green" depart="27056.00" departLane="best" departPos="0.00" id="AVL---_14_15" type="bus">
        <route edges="--30892#24 --30892#23 --30892#22 --30892#21 --30892#20"/>
    </vehicle>
    <vehicle arrivalPos="-1.00" color="green" depart="27080.32" departLane="best" departPos="0.00" id="AVL---_24_14" type="bus">
        <route edges="-30892#20 -30892#21 -30892#22 -30892#23 -30892#24 -30892#25 -30892#26"/>
    </vehicle>
    <vehicle arrivalPos="-1.00" color="green" depart="27111.23" departLane="best" departPos="0.00" id="AVL---_24_15" type="bus">
        <route edges="--30892#26 --30892#25 --30892#24 --30892#23 --30892#22 --30892#21 --30892#20"/>
    </vehicle>
    <vehicle arrivalPos="-1.00" color="green" depart="27162.61" departLane="best" departPos="0.00" id="AVL---_4_14" type="bus">
        <route edges="--31066#8 --30892#21 --30892#20"/>
    </vehicle>
    <vehicle arrivalPos="-1.00" color="green" depart="27181.36" departLane="best" departPos="0.00" id="AVL---_2_14" type="bus">
        <route edges="--32558 -30832#0 -30832#1 -31814 -32984#0 -32984#1 -32984#2 -32528#0 -32528#1 -32528#2 -32528#3 -30968#2 -30968#3 -30348#2 -30348#3 -30348#4 -30348#5 -32914#2 -32914#3 -31066#0 -31066#1 -31066#2 -31066#3 -31066#4 -31066#5"/>
    </vehicle>
    <vehicle arrivalPos="-1.00" color="green" depart="27195.61" departLane="best" departPos="0.00" id="AVL---_21_14" type="bus">
        <route edges="--30892#26 --30892#25 --30892#24 --30892#23 --30892#22 --30892#21 --30892#20"/>
    </vehicle>
    <vehicle arrivalPos="-1.00" color="green" depart="27209.68" departLane="best" departPos="0.00" id="AVL---_18_14" type="bus">
        <route edges="--30892#26 --30892#25 --30892#24 --30892#23 --30892#22 --31066#7 --31066#6"/>
    </vehicle>
    <vehicle arrivalPos="-1.00" color="green" depart="27310.62" departLane="best" departPos="0.00" id="AVL---_2_15" type="bus">
        <route edges="--31066#5 --31066#4 --31066#3 --31066#2 --31066#1 --31066#0 -32914#1 --30348#5 --30348#4 --30348#3 --30348#2 --30968#3 --30346#0 -30892#25 -32558"/>
    </vehicle>
    <vehicle arrivalPos="-1.00" color="green" depart="27345.05" departLane="best" departPos="0.00" id="AVL---_4_15" type="bus">
        <route edges="-30892#20 -30892#21 -31066#8"/>
    </vehicle>
    <vehicle arrivalPos="-1.00" color="green" depart="27573.38" departLane="best" departPos="0.00" id="AVL---_21_15" type="bus">
        <route edges="-30892#20 -30892#21 -30892#22 -30892#23 -30892#24 -30892#25 -30892#26"/>
    </vehicle>
    <vehicle arrivalPos="-1.00" color="green" depart="27615.56" departLane="best" departPos="0.00" id="AVL---_18_15" type="bus">
        <route edges="-31066#6 -31066#7 -30892#22 -30892#23 -30892#24 -30892#25 -30892#26"/>
    </vehicle>
    <vehicle arrivalPos="-1.00" color="green" depart="27692.60" departLane="best" departPos="0.00" id="AVL---_14_14" type="bus">
        <route edges="-30892#20 -30892#21 -30892#22 -30892#23 -30892#24"/>
    </vehicle>
    <vehicle arrivalPos="-1.00" color="green" depart="28856.00" departLane="best" departPos="0.00" id="AVL---_14_17" type="bus">
        <route edges="--30892#24 --30892#23 --30892#22 --30892#21 --30892#20"/>
    </vehicle>
    <vehicle arrivalPos="-1.00" color="green" depart="28880.32" departLane="best" departPos="0.00" id="AVL---_24_16" type="bus">
        <route edges="-30892#20 -30892#21 -30892#22 -30892#23 -30892#24 -30892#25 -30892#26"/>
    </vehicle>
    <vehicle arrivalPos="-1.00" color="green" depart="28911.23" departLane="best" departPos="0.00" id="AVL---_24_17" type="bus">
        <route edges="--30892#26 --30892#25 --30892#24 --30892#23 --30892#22 --30892#21 --30892#20"/>
    </vehicle>
    <vehicle arrivalPos="-1.00" color="green" depart="28962.61" departLane="best" departPos="0.00" id="AVL---_4_16" type="bus">
        <route edges="--31066#8 --30892#21 --30892#20"/>
    </vehicle>
    <vehicle arrivalPos="-1.00" color="green" depart="28981.36" departLane="best" departPos="0.00" id="AVL---_2_16" type="bus">
        <route edges="--32558 -30832#0 -30832#1 -31814 -32984#0 -32984#1 -32984#2 -32528#0 -32528#1 -32528#2 -32528#3 -30968#2 -30968#3 -30348#2 -30348#3 -30348#4 -30348#5 -32914#2 -32914#3 -31066#0 -31066#1 -31066#2 -31066#3 -31066#4 -31066#5"/>
    </vehicle>
    <vehicle arrivalPos="-1.00" color="green" depart="28995.61" departLane="best" departPos="0.00" id="AVL---_21_16" type="bus">
        <route edges="--30892#26 --30892#25 --30892#24 --30892#23 --30892#22 --30892#21 --30892#20"/>
    </vehicle>
    <vehicle arrivalPos="-1.00" color="green" depart="29009.68" departLane="best" departPos="0.00" id="AVL---_18_16" type="bus">
        <route edges="--30892#26 --30892#25 --30892#24 --30892#23 --30892#22 --31066#7 --31066#6"/>
    </vehicle>
    <vehicle arrivalPos="-1.00" color="green" depart="29110.62" departLane="best" departPos="0.00" id="AVL---_2_17" type="bus">
        <route edges="--31066#5 --31066#4 --31066#3 --31066#2 --31066#1 --31066#0 -32914#1 --30348#5 --30348#4 --30348#3 --30348#2 --30968#3 --30346#0 -30892#25 -32558"/>
    </vehicle>
    <vehicle arrivalPos="-1.00" color="green" depart="29145.05" departLane="best" departPos="0.00" id="AVL---_4_17" type="bus">
        <route edges="-30892#20 -30892#21 -31066#8"/>
    </vehicle>
    <vehicle arrivalPos="-1.00" color="green" depart="29373.38" departLane="best" departPos="0.00" id="AVL---_21_17" type="bus">
        <route edges="-30892#20 -30892#21 -30892#22 -30892#23 -30892#24 -30892#25 -30892#26"/>
    </vehicle>
    <vehicle arrivalPos="-1.00" color="green" depart="29415.56" departLane="best" departPos="0.00" id="AVL---_18_17" type="bus">
        <route edges="-31066#6 -31066#7 -30892#22 -30892#23 -30892#24 -30892#25 -30892#26"/>
    </vehicle>
    <vehicle arrivalPos="-1.00" color="green" depart="29492.60" departLane="best" departPos="0.00" id="AVL---_14_16" type="bus">
        <route edges="-30892#20 -30892#21 -30892#22 -30892#23 -30892#24"/>
    </vehicle>
    <vehicle arrivalPos="-1.00" color="green" depart="30656.00" departLane="best" departPos="0.00" id="AVL---_14_19" type="bus">
        <route edges="--30892#24 --30892#23 --30892#22 --30892#21 --30892#20"/>
    </vehicle>
    <vehicle arrivalPos="-1.00" color="green" depart="30680.32" departLane="best" departPos="0.00" id="AVL---_24_18" type="bus">
        <route edges="-30892#20 -30892#21 -30892#22 -30892#23 -30892#24 -30892#25 -30892#26"/>
    </vehicle>
    <vehicle arrivalPos="-1.00" color="green" depart="30711.23" departLane="best" departPos="0.00" id="AVL---_24_19" type="bus">
        <route edges="--30892#26 --30892#25 --30892#24 --30892#23 --30892#22 --30892#21 --30892#20"/>
    </vehicle>
    <vehicle arrivalPos="-1.00" color="green" depart="30762.61" departLane="best" departPos="0.00" id="AVL---_4_18" type="bus">
        <route edges="--31066#8 --30892#21 --30892#20"/>
    </vehicle>
    <vehicle arrivalPos="-1.00" color="green" depart="30781.36" departLane="best" departPos="0.00" id="AVL---_2_18" type="bus">
        <route edges="--32558 -30832#0 -30832#1 -31814 -32984#0 -32984#1 -32984#2 -32528#0 -32528#1 -32528#2 -32528#3 -30968#2 -30968#3 -30348#2 -30348#3 -30348#4 -30348#5 -32914#2 -32914#3 -31066#0 -31066#1 -31066#2 -31066#3 -31066#4 -31066#5"/>
    </vehicle>
    <vehicle arrivalPos="-1.00" color="green" depart="30795.61" departLane="best" departPos="0.00" id="AVL---_21_18" type="bus">
        <route edges="--30892#26 --30892#25 --30892#24 --30892#23 --30892#22 --30892#21 --30892#20"/>
    </vehicle>
    <vehicle arrivalPos="-1.00" color="green" depart="30809.68" departLane="best" departPos="0.00" id="AVL---_18_18" type="bus">
        <route edges="--30892#26 --30892#25 --30892#24 --30892#23 --30892#22 --31066#7 --31066#6"/>
    </vehicle>
    <vehicle arrivalPos="-1.00" color="green" depart="30910.62" departLane="best" departPos="0.00" id="AVL---_2_19" type="bus">
        <route edges="--31066#5 --31066#4 --31066#3 --31066#2 --31066#1 --31066#0 -32914#1 --30348#5 --30348#4 --30348#3 --30348#2 --30968#3 --30346#0 -30892#25 -32558"/>
    </vehicle>
    <vehicle arrivalPos="-1.00" color="green" depart="30945.05" departLane="best" departPos="0.00" id="AVL---_4_19" type="bus">
        <route edges="-30892#20 -30892#21 -31066#8"/>
    </vehicle>
    <vehicle arrivalPos="-1.00" color="green" depart="31173.38" departLane="best" departPos="0.00" id="AVL---_21_19" type="bus">
        <route edges="-30892#20 -30892#21 -30892#22 -30892#23 -30892#24 -30892#25 -30892#26"/>
    </vehicle>
    <vehicle arrivalPos="-1.00" color="green" depart="31215.56" departLane="best" departPos="0.00" id="AVL---_18_19" type="bus">
        <route edges="-31066#6 -31066#7 -30892#22 -30892#23 -30892#24 -30892#25 -30892#26"/>
    </vehicle>