<!-- generated with cutRoutes.py for lust.net.xml from ['due.local.actuated.2.rou.xml'] -->
<routes xmlns:xsi="http://www.w3.org/2001/XMLSchema-instance" xsi:noNamespaceSchemaLocation="http://sumo.dlr.de/xsd/routes_file.xsd">
    <vehicle arrivalPos="random" arrivalSpeed="0.00" depart="61789.00" departPos="random" departSpeed="0.00" id="c1randUni10890:1" type="passenger2a">
        <route edges="--30892#20"/>
    </vehicle>
    <vehicle arrivalPos="random" arrivalSpeed="0.00" depart="61789.00" departPos="random" departSpeed="0.00" id="randUni10890:1" type="passenger2a">
        <route edges="--30892#20"/>
    </vehicle>
    <vehicle arrivalPos="random" arrivalSpeed="0.00" depart="61794.81" departPos="random" departSpeed="0.00" id="c1h11746c2:3" type="passenger1">
        <route edges="--30892#26 --30892#25 --30892#24 --30892#23 --30892#22 -31066#8"/>
    </vehicle>
    <vehicle arrivalPos="random" arrivalSpeed="0.00" depart="61794.81" departPos="random" departSpeed="0.00" id="h11746c2:3" type="passenger3">
        <route edges="--30892#26 --30892#25 --30892#24 --30892#23 --30892#22 -31066#8"/>
    </vehicle>
    <vehicle arrivalPos="random" arrivalSpeed="0.00" depart="61794.81" departPos="random" departSpeed="0.00" id="nrh01c1h11746c2:3" type="passenger1">
        <route edges="--30892#26 --30892#25 --30892#24 --30892#23 --30892#22 -31066#8"/>
    </vehicle>
    <vehicle arrivalPos="random" arrivalSpeed="0.00" depart="61812.00" departPos="random" departSpeed="0.00" id="c1h39242c1:3" type="passenger2b">
        <route edges="-31066#7 -31066#8"/>
    </vehicle>
    <vehicle arrivalPos="random" arrivalSpeed="0.00" depart="61812.00" departPos="random" departSpeed="0.00" id="h39242c1:3" type="passenger1">
        <route edges="-31066#7 --30892#21 --30892#20"/>
    </vehicle>
    <vehicle arrivalPos="random" arrivalSpeed="0.00" depart="61818.00" departPos="random" departSpeed="0.00" id="c1h12261c1:3" type="passenger4">
        <route edges="--30348#0 -30892#24 -30346#0 --30968#2 --30968#1 --30968#0 -30970#2 --30832#0 -32558"/>
    </vehicle>
    <vehicle arrivalPos="random" arrivalSpeed="0.00" depart="61818.00" departPos="random" departSpeed="0.00" id="h12261c1:3" type="passenger1">
        <route edges="--30348#0 -30892#24 -30346#0 --30968#2 --32528#3 --32528#2 --32528#1 --32528#0 --32984#2 -32332#0 -32332#1 --31214#2 -32208#0 -32208#1 --31340#1 --31340#0"/>
    </vehicle>
    <vehicle arrivalPos="random" arrivalSpeed="0.00" depart="61818.00" departPos="random" departSpeed="0.00" id="nrh01c1h12261c1:3" type="passenger4">
        <route edges="--30348#0 -30892#24 -30892#25 -30892#26"/>
    </vehicle>
    <vehicle arrivalPos="random" arrivalSpeed="0.00" depart="61819.00" departPos="random" departSpeed="0.00" id="c1h71586c1:3" type="passenger4">
        <route edges="--32874#0 -32914#3 -31066#0 -31066#1 -31066#2 -32618#0 -32618#1 --30552"/>
    </vehicle>
    <vehicle arrivalPos="random" arrivalSpeed="0.00" depart="61819.00" departPos="random" departSpeed="0.00" id="h71586c1:3" type="passenger1">
        <route edges="--32874#0 -32914#3 -31066#0 -31066#1 -31066#2 -32618#0 -32618#1 --30552"/>
    </vehicle>
    <vehicle arrivalPos="random" arrivalSpeed="0.00" depart="61836.00" departPos="random" departSpeed="0.00" id="c1h22653c1:3" type="passenger2a">
        <route edges="--30348#0 -30892#24 -30346#0 --30968#2 --30968#1 --30968#0 -30970#2 --30832#0 -30892#26"/>
    </vehicle>
    <vehicle arrivalPos="random" arrivalSpeed="0.00" depart="61836.00" departPos="random" departSpeed="0.00" id="c1randUni4263:1" type="passenger1">
        <route edges="--30348#5 --30348#4 -31948#0 --30346#1 --30346#0 --30892#24 --30892#23 --30892#22 -31066#8"/>
    </vehicle>
    <vehicle arrivalPos="random" arrivalSpeed="0.00" depart="61836.00" departPos="random" departSpeed="0.00" id="h22653c1:3" type="passenger1">
        <route edges="--30348#0 -30892#24 -30346#0 --30968#2 --30968#1 --30968#0 -30970#2 --30832#0 -30892#26"/>
    </vehicle>
    <vehicle arrivalPos="random" arrivalSpeed="0.00" depart="61836.00" departPos="random" departSpeed="0.00" id="randUni4263:1" type="passenger2a">
        <route edges="--30348#5 --30348#4 --30348#3 --30348#2 --30968#3 --30346#0 --30892#24 --30892#23 --30892#22 --30892#21 --30892#20"/>
    </vehicle>
    <vehicle arrivalPos="random" arrivalSpeed="0.00" depart="61855.00" departPos="random" departSpeed="0.00" id="c1h19587c1:3" type="passenger2a">
        <route edges="--30892#26 --30892#25 -30346#0 -30968#3 -30348#2 --32618#5 --32618#4 --32618#3 -32474#0 -30522 --32618#0 --31066#2 --31066#1 --31340#4 --31340#3 --31340#2 --31340#1 --31340#0"/>
    </vehicle>
    <vehicle arrivalPos="random" arrivalSpeed="0.00" depart="61855.00" departPos="random" departSpeed="0.00" id="h19587c1:3" type="passenger1">
        <route edges="--30892#26 -30832#0 -30832#1 -31814 -32984#0 -32984#1 -32332#0 -32332#1 -30562#1 -30562#2 --31340#3 --31340#2 --31340#1 --31340#0"/>
    </vehicle>
    <vehicle arrivalPos="random" arrivalSpeed="0.00" depart="61855.00" departPos="random" departSpeed="0.00" id="nrh01c1h19587c1:3" type="passenger2a">
        <route edges="--30892#26 -30832#0 -30832#1 -31814 -32984#0 -32984#1 -32332#0 -32332#1 -30562#1 -30562#2 --31340#3 --31340#2 --31340#1 --31340#0"/>
    </vehicle>
    <vehicle arrivalPos="random" arrivalSpeed="0.00" depart="61875.80" departPos="random" departSpeed="0.00" id="c1h17392c2:3" type="passenger1">
        <route edges="-30552 --32618#1 --32618#0 --31066#2 --31066#1 --31340#4 --31340#3 --31340#2 --31340#1 --31340#0"/>
    </vehicle>
    <vehicle arrivalPos="random" arrivalSpeed="0.00" depart="61875.80" departPos="random" departSpeed="0.00" id="h17392c2:3" type="passenger5">
        <route edges="-30552 --32618#1 --32618#0 --31066#2 --31186#2 --31186#1 --31698 --31340#2 --31340#1 --31340#0"/>
    </vehicle>
    <vehicle arrivalPos="random" arrivalSpeed="0.00" depart="61893.00" departPos="random" departSpeed="0.00" id="c1h2381c2:3" type="passenger1">
        <route edges="--31066#7 --32438 --32794#0 -32618#4 -32618#5 --30348#2 --30968#3 --30346#0 -30892#25 -30892#26"/>
    </vehicle>
    <vehicle arrivalPos="random" arrivalSpeed="0.00" depart="61893.00" departPos="random" departSpeed="0.00" id="h2381c2:3" type="passenger2a">
        <route edges="--31066#7 --31066#6 -30552 --32618#1 --32618#0 --31066#2 --31066#1 --31340#4 --31340#3 --31340#2 --31340#1 --31340#0"/>
    </vehicle>
    <vehicle arrivalPos="random" arrivalSpeed="0.00" depart="61925.00" departPos="random" departSpeed="0.00" id="c1h74333c1:3" type="passenger1">
        <route edges="--31066#7 --32438 --32794#0 -32618#4 -32618#5 --30348#2 --30968#3 --30346#0 -30892#25 -30892#26"/>
    </vehicle>
    <vehicle arrivalPos="random" arrivalSpeed="0.00" depart="61925.00" departPos="random" departSpeed="0.00" id="h74333c1:3" type="passenger5">
        <route edges="--31066#7 --32438 --32794#0 -32618#4 -32618#5 --30348#2 --30968#3 --30346#0 -30892#25 -30892#26"/>
    </vehicle>
    <vehicle arrivalPos="random" arrivalSpeed="0.00" depart="61950.86" departPos="random" departSpeed="0.00" id="c1h7349c1:3" type="passenger1">
        <route edges="-31340#0 -31340#1 -31340#2 -31340#3 -31340#4 -31066#1 -31066#2 -32618#0 -32618#1 --30552 -31066#6 -31066#7 --30892#21 --30892#20"/>
    </vehicle>
    <vehicle arrivalPos="random" arrivalSpeed="0.00" depart="61954.00" departPos="random" departSpeed="0.00" id="c1h22482c1:2" type="passenger2b">
        <route edges="-32618#5 -30348#3 -31948#0 -31948#1 --32528#0 -32984#3 -32984#4 --31214#3 -30562#1 -30562#2 --31340#3 --31340#2 --31340#1 --31340#0"/>
    </vehicle>
    <vehicle arrivalPos="random" arrivalSpeed="0.00" depart="61954.00" departPos="random" departSpeed="0.00" id="h22482c1:2" type="passenger2a">
        <route edges="-32618#5 --30348#2 --30968#3 --30968#2 --30968#1 --30968#0 -30970#2 --30832#0 -32558"/>
    </vehicle>
    <vehicle arrivalPos="random" arrivalSpeed="0.00" depart="61956.00" departPos="random" departSpeed="0.00" id="c1h38952c1:3" type="passenger2a">
        <route edges="--30348#0 --30892#23 --30892#22 --30892#21 --30892#20"/>
    </vehicle>
    <vehicle arrivalPos="random" arrivalSpeed="0.00" depart="61956.00" departPos="random" departSpeed="0.00" id="h38952c1:3" type="passenger1">
        <route edges="--30348#0 --30892#23 --30892#22 -31066#8"/>
    </vehicle>
    <vehicle arrivalPos="random" arrivalSpeed="0.00" depart="61957.92" departPos="random" departSpeed="0.00" id="c1h69140c1:3" type="passenger2a">
        <route edges="--30892#26 --30892#25 --30892#24 --30892#23 --30892#22 --30892#21 --30892#20"/>
    </vehicle>
    <vehicle arrivalPos="random" arrivalSpeed="0.00" depart="61957.92" departPos="random" departSpeed="0.00" id="h69140c1:3" type="passenger2a">
        <route edges="--30892#26 --30892#25 --30892#24 --30892#23 --30892#22 --30892#21 --30892#20"/>
    </vehicle>
    <vehicle arrivalPos="random" arrivalSpeed="0.00" depart="61988.58" departPos="random" departSpeed="0.00" id="h72005c1:3" type="passenger1">
        <route edges="-30552 -32618#2 -32618#3 -32618#4 -32618#5 -30348#3 -31948#0 -31948#1 -31948#2 -30970#1 -30970#2 --30832#0 -30892#26"/>
    </vehicle>
    <vehicle arrivalPos="random" arrivalSpeed="0.00" depart="61994.18" departPos="random" departSpeed="0.00" id="nrh01c1h45226c1:3" type="passenger1">
        <route edges="-30892#20 -30892#21 --31066#7 --31066#6 -30552 --32618#1 --32618#0 --31066#2 --31066#1 --31340#4 --31340#3 --31340#2 --31340#1 --31340#0"/>
    </vehicle>
    <vehicle arrivalPos="random" arrivalSpeed="0.00" depart="61998.00" departPos="random" departSpeed="0.00" id="c1h6727c1:3" type="passenger1">
        <route edges="--32560 --30348#4 -31948#0 -31948#1 -31948#2 -30970#1 -30970#2 --30832#0 -32558"/>
    </vehicle>
    <vehicle arrivalPos="random" arrivalSpeed="0.00" depart="61998.00" departPos="random" departSpeed="0.00" id="h6727c1:3" type="passenger2a">
        <route edges="--32560 --32474#1 --32474#0 --32618#2 --30552"/>
    </vehicle>
    <vehicle arrivalPos="random" arrivalSpeed="0.00" depart="62006.12" departPos="random" departSpeed="0.00" id="nrh01c1h14318c2:3" type="passenger1">
        <route edges="--32558 -30832#0 -30832#1 -31814 -32984#0 -32984#1 -32332#0 --32874#2 --32874#1 --32874#0 -32914#3 -31066#0 --31340#4 --31340#3 --31340#2 --31340#1 --31340#0"/>
    </vehicle>
    <vehicle arrivalPos="random" arrivalSpeed="0.00" depart="62009.00" departPos="random" departSpeed="0.00" id="c1h8808c1:3" type="passenger1">
        <route edges="--31186#0 --32918#0 -31066#4 -31066#5"/>
    </vehicle>
    <vehicle arrivalPos="random" arrivalSpeed="0.00" depart="62009.00" departPos="random" departSpeed="0.00" id="h8808c1:3" type="passenger1">
        <route edges="--31186#0 --32918#0 -31066#4 -31066#5"/>
    </vehicle>
    <vehicle arrivalPos="random" arrivalSpeed="0.00" depart="62014.00" departPos="random" departSpeed="0.00" id="c1h63391c1:3" type="passenger1">
        <route edges="-31948#1 --32528#0 -32984#3 -32984#4 --32874#1 --32874#0 -32914#3 -31066#0 --31340#4 --31340#3 --31340#2 --31340#1 --31340#0"/>
    </vehicle>
    <vehicle arrivalPos="random" arrivalSpeed="0.00" depart="62014.00" departPos="random" departSpeed="0.00" id="h63391c1:3" type="passenger1">
        <route edges="-31948#1 --32528#0 -32984#3 --32560 --32474#1 --32474#0 --32618#2 --30552"/>
    </vehicle>
    <vehicle arrivalPos="random" arrivalSpeed="0.00" depart="62014.00" departPos="random" departSpeed="0.00" id="nrh01c1h63391c1:3" type="passenger1">
        <route edges="-31948#1 -31948#2 -30970#1 -30970#2 --30832#0 -30892#26"/>
    </vehicle>
    <vehicle arrivalPos="random" arrivalSpeed="0.00" depart="62015.05" departPos="random" departSpeed="0.00" id="c1h72005c1:3" type="passenger1">
        <route edges="-30552 -32618#2 -32618#3 -32618#4 -32618#5 -30348#3 -31948#0 -31948#1 -32528#1 -32528#2 -31826 --31740#0 --30968#0 -30970#2 --30832#0 -30892#26"/>
    </vehicle>
    <vehicle arrivalPos="random" arrivalSpeed="0.00" depart="62030.80" departPos="random" departSpeed="0.00" id="randUni18188:1" type="passenger2a">
        <route edges="-30892#20 -30892#21 -30892#22 -30892#23 -30892#24 -30892#25 -30892#26"/>
    </vehicle>
    <vehicle arrivalPos="random" arrivalSpeed="0.00" depart="62035.00" departPos="random" departSpeed="0.00" id="c1h7928c1:3" type="passenger2a">
        <route edges="-32332#0 --32874#2 --32984#4 --32560 --32474#1 --32474#0 --32618#2 --30552"/>
    </vehicle>
    <vehicle arrivalPos="random" arrivalSpeed="0.00" depart="62035.00" departPos="random" departSpeed="0.00" id="h7928c1:3" type="passenger1">
        <route edges="-32332#0 --32874#2 --32984#4 --32560 --32474#1 --32474#0 --32618#2 --30552"/>
    </vehicle>
    <vehicle arrivalPos="random" arrivalSpeed="0.00" depart="62035.00" departPos="random" departSpeed="0.00" id="nrh01c1h7928c1:3" type="passenger2a">
        <route edges="-32332#0 --32874#2 --32984#4 --32560 --32474#1 --32474#0 --32618#2 --30552"/>
    </vehicle>
    <vehicle arrivalPos="random" arrivalSpeed="0.00" depart="62035.40" departPos="random" departSpeed="0.00" id="c1h9942c1:3" type="passenger2b">
        <route edges="--31066#8 -30892#22 -30892#23 -30892#24 -30892#25 -30892#26"/>
    </vehicle>
    <vehicle arrivalPos="random" arrivalSpeed="0.00" depart="62035.40" departPos="random" departSpeed="0.00" id="h9942c1:3" type="passenger2b">
        <route edges="--31066#8 -30892#22 -30892#23 -30892#24 -30892#25 -30892#26"/>
    </vehicle>
    <vehicle arrivalPos="random" arrivalSpeed="0.00" depart="62053.63" departPos="random" departSpeed="0.00" id="randUni13661:1" type="passenger5">
        <route edges="-30892#20 -30892#21 --31066#7 --31066#6 -30552 --32618#1 --32618#0 --31066#2 --31066#1 --31340#4 --31340#3 --31340#2 --31340#1 --31340#0"/>
    </vehicle>
    <vehicle arrivalPos="random" arrivalSpeed="0.00" depart="62061.00" departPos="random" departSpeed="0.00" id="c1h37699c1:3" type="passenger1">
        <route edges="--30348#5 --30348#4 --30348#3 --30348#2 --30348#1 --30348#0 --30892#23 --30892#22 --30892#21 --30892#20"/>
    </vehicle>
    <vehicle arrivalPos="random" arrivalSpeed="0.00" depart="62061.00" departPos="random" departSpeed="0.00" id="h37699c1:3" type="passenger4">
        <route edges="--30348#5 --30348#4 -31948#0 --30346#1 --30346#0 --30892#24 --30892#23 --30892#22 --30892#21 --30892#20"/>
    </vehicle>
    <vehicle arrivalPos="random" arrivalSpeed="0.00" depart="62065.00" departPos="random" departSpeed="0.00" id="c1randUni10428:1" type="passenger2a">
        <route edges="--30348#0 --30892#23 --30892#22 --30892#21 --30892#20"/>
    </vehicle>
    <vehicle arrivalPos="random" arrivalSpeed="0.00" depart="62065.00" departPos="random" departSpeed="0.00" id="randUni10428:1" type="passenger1">
        <route edges="--30348#0 --30892#23 --30892#22 --30892#21 --30892#20"/>
    </vehicle>
    <vehicle arrivalPos="random" arrivalSpeed="0.00" depart="62070.18" departPos="random" departSpeed="0.00" id="h13472c1:3" type="passenger1">
        <route edges="--30892#26 --30892#25 --30892#24 --30892#23 --30892#22 --30892#21 --30892#20"/>
    </vehicle>
    <vehicle arrivalPos="random" arrivalSpeed="0.00" depart="62076.04" departPos="random" departSpeed="0.00" id="c1h39062c2:3" type="passenger1">
        <route edges="--32558 -30892#26"/>
    </vehicle>
    <vehicle arrivalPos="random" arrivalSpeed="0.00" depart="62076.04" departPos="random" departSpeed="0.00" id="h39062c2:3" type="passenger2b">
        <route edges="--32558 -30892#26"/>
    </vehicle>
    <vehicle arrivalPos="random" arrivalSpeed="0.00" depart="62076.04" departPos="random" departSpeed="0.00" id="nrh01h39062c2:3" type="passenger2b">
        <route edges="--32558 -30892#26"/>
    </vehicle>
    <vehicle arrivalPos="random" arrivalSpeed="0.00" depart="62078.18" departPos="random" departSpeed="0.00" id="c1h36481c1:3" type="passenger1">
        <route edges="--30892#26 --30892#25 --30892#24 --30892#23 --30892#22 --30892#21 --30892#20"/>
    </vehicle>
    <vehicle arrivalPos="random" arrivalSpeed="0.00" depart="62082.00" departPos="random" departSpeed="0.00" id="c1randUni20584:1" type="passenger1">
        <route edges="-32438 -31066#7 --30892#21 --30892#20"/>
    </vehicle>
    <vehicle arrivalPos="random" arrivalSpeed="0.00" depart="62082.00" departPos="random" departSpeed="0.00" id="randUni20584:1" type="passenger2a">
        <route edges="-32438 -31066#7 --30892#21 --30892#20"/>
    </vehicle>
    <vehicle arrivalPos="random" arrivalSpeed="0.00" depart="62085.64" departPos="random" departSpeed="0.00" id="nrh01c1randUni18625:1" type="passenger4">
        <route edges="-31340#0 -31340#1 -31340#2 -31698 -31186#1 -31186#2 -31066#2 -32618#0 -32618#1 --30552 -31066#6 -31066#7 -31066#8"/>
    </vehicle>
    <vehicle arrivalPos="random" arrivalSpeed="0.00" depart="62086.46" departPos="random" departSpeed="0.00" id="randUni18625:1" type="passenger1">
        <route edges="-31340#0 --30716 -31214#1 -31214#2 --30562#0 --32332#0 --32984#1 -30970#0 --31948#2 -32528#1 -32528#2 -32528#3 -30968#2 -30968#3 --30348#1 --30348#0 --30892#23"/>
    </vehicle>
    <vehicle arrivalPos="random" arrivalSpeed="0.00" depart="62086.57" departPos="random" departSpeed="0.00" id="c1randUni18625:1" type="passenger4">
        <route edges="-31340#0 -31340#1 -31340#2 -31698 -31186#1 --32918#2 --32540 -32618#0 -32618#1 --30552 -31066#6 -31066#7 -31066#8"/>
    </vehicle>
    <vehicle arrivalPos="random" arrivalSpeed="0.00" depart="62096.32" departPos="random" departSpeed="0.00" id="h5678c1:3" type="passenger4">
        <route edges="--30892#26 --30892#25 --30892#24 --30892#23 --30892#22 --30892#21 --30892#20"/>
    </vehicle>
    <vehicle arrivalPos="random" arrivalSpeed="0.00" depart="62102.25" departPos="random" departSpeed="0.00" id="c1randUni13661:1" type="passenger1">
        <route edges="-30892#20 -30892#21 -30892#22 -30892#23 -30348#0 -30348#1 -30348#2 -30348#3 -30348#4 -30348#5 -32914#2 -32914#3 -31066#0 --31340#4 --31340#3 --31340#2 --31340#1 --31340#0"/>
    </vehicle>
    <vehicle arrivalPos="random" arrivalSpeed="0.00" depart="62104.94" departPos="random" departSpeed="0.00" id="nrh01h38833c2:3" type="passenger1">
        <route edges="-30892#20 -30892#21 -30892#22 -30892#23 -30348#0 -30348#1 -30348#2 -30348#3 -30348#4 -30348#5 -32914#2 -32914#3 -31066#0 --31340#4 --31340#3 --31340#2 --31340#1 --31340#0"/>
    </vehicle>
    <vehicle arrivalPos="random" arrivalSpeed="0.00" depart="62106.35" departPos="random" departSpeed="0.00" id="c1h63010c1:3" type="passenger2b">
        <route edges="--31066#8 -30892#22 -30892#23 -30892#24 -30892#25 -30892#26"/>
    </vehicle>
    <vehicle arrivalPos="random" arrivalSpeed="0.00" depart="62106.35" departPos="random" departSpeed="0.00" id="h63010c1:3" type="passenger2b">
        <route edges="--31066#8 -30892#22 -30892#23 -30892#24 -30892#25 -30892#26"/>
    </vehicle>
    <vehicle arrivalPos="random" arrivalSpeed="0.00" depart="62110.16" departPos="random" departSpeed="0.00" id="c1h18955c1:3" type="passenger1">
        <route edges="--31066#8 -30892#22 -30892#23 -30892#24 -30892#25 -30892#26"/>
    </vehicle>
    <vehicle arrivalPos="random" arrivalSpeed="0.00" depart="62110.16" departPos="random" departSpeed="0.00" id="h18955c1:3" type="passenger1">
        <route edges="--31066#8 -30892#22 -30892#23 -30892#24 -30892#25 -30892#26"/>
    </vehicle>
    <vehicle arrivalPos="random" arrivalSpeed="0.00" depart="62110.16" departPos="random" departSpeed="0.00" id="nrh01h18955c1:3" type="passenger1">
        <route edges="--31066#8 -30892#22 -30892#23 -30892#24 -30892#25 -30892#26"/>
    </vehicle>
    <vehicle arrivalPos="random" arrivalSpeed="0.00" depart="62115.86" departPos="random" departSpeed="0.00" id="h20007c1:3" type="passenger4">
        <route edges="-31340#0 -31340#1 -31340#2 -31340#3 --30562#2 -30740#2 -32874#1 --32984#4 --32560 --32474#1 --32474#0 --32618#2 --30552"/>
    </vehicle>
    <vehicle arrivalPos="random" arrivalSpeed="0.00" depart="62119.46" departPos="random" departSpeed="0.00" id="c1h4874c1:3" type="passenger4">
        <route edges="-31340#0 -31340#1 -31340#2 -31340#3 --30562#2 -30740#2 -32874#1 --32984#4 --32560 --32474#1 --32474#0 --32618#2 --30552"/>
    </vehicle>
    <vehicle arrivalPos="random" arrivalSpeed="0.00" depart="62119.46" departPos="random" departSpeed="0.00" id="h4874c1:3" type="passenger1">
        <route edges="-31340#0 -31340#1 -31340#2 -31340#3 --30562#2 -30740#2 -32874#1 --32984#4 --32560 --32474#1 --32474#0 --32618#2 --30552"/>
    </vehicle>
    <vehicle arrivalPos="random" arrivalSpeed="0.00" depart="62135.69" departPos="random" departSpeed="0.00" id="c1h64382c2:3" type="passenger2b">
        <route edges="-31340#0 -31340#1 -31340#2 -31698 -31186#1 --32918#2 --32540 -32618#0 -32618#1 --30552"/>
    </vehicle>
    <vehicle arrivalPos="random" arrivalSpeed="0.00" depart="62135.69" departPos="random" departSpeed="0.00" id="h64382c2:3" type="passenger2a">
        <route edges="-31340#0 -31340#1 -31340#2 -31698 -31186#1 --32918#2 --32540 -32618#0 -32618#1 --30552"/>
    </vehicle>
    <vehicle arrivalPos="random" arrivalSpeed="0.00" depart="62147.76" departPos="random" departSpeed="0.00" id="h71486c1:3" type="passenger3">
        <route edges="-30552 -32618#2 -32618#3 -32618#4 -32618#5 -30348#3 -31948#0 -31948#1 -32528#1 -32528#2 -31826 --31740#0 --30968#0 -30970#2 --30832#0 -32558"/>
    </vehicle>
    <vehicle arrivalPos="random" arrivalSpeed="0.00" depart="62147.76" departPos="random" departSpeed="0.00" id="nrh01c1h71486c1:3" type="passenger1">
        <route edges="-30552 -32618#2 -32474#0 -32474#1 -32560 --32984#3 --32984#2 --32984#1 -30970#0 -30970#1 -30970#2 --30832#0 -32558"/>
    </vehicle>
    <vehicle arrivalPos="random" arrivalSpeed="0.00" depart="62149.67" departPos="random" departSpeed="0.00" id="h12129c1:3" type="passenger2a">
        <route edges="--30892#26 --30892#25 --30892#24 --30892#23 --30892#22 --30892#21 --30892#20"/>
    </vehicle>
    <vehicle arrivalPos="random" arrivalSpeed="0.00" depart="62151.92" departPos="random" departSpeed="0.00" id="h46625c1:3" type="passenger1">
        <route edges="-30892#20 -30892#21 -30892#22 -30892#23 -30348#0 -30348#1 --30968#3 --30968#2 --30968#1 --30968#0 -30970#2"/>
    </vehicle>
    <vehicle arrivalPos="random" arrivalSpeed="0.00" depart="62152.75" departPos="random" departSpeed="0.00" id="c1h50356c2:3" type="passenger2b">
        <route edges="-30892#20 -30892#21 -30892#22 -30892#23 -30892#24 -30892#25 -30892#26"/>
    </vehicle>
    <vehicle arrivalPos="random" arrivalSpeed="0.00" depart="62152.75" departPos="random" departSpeed="0.00" id="h50356c2:3" type="passenger2a">
        <route edges="-30892#20 -30892#21 -30892#22 -30892#23 -30892#24 -30892#25 -30892#26"/>
    </vehicle>
    <vehicle arrivalPos="random" arrivalSpeed="0.00" depart="62157.10" departPos="random" departSpeed="0.00" id="nrh01c1h69045c1:3" type="passenger3">
        <route edges="-31340#0 -31340#1 -31340#2 -31698 -31186#1 -31186#2 -31066#2 -32618#0 -32618#1 --30552"/>
    </vehicle>
    <vehicle arrivalPos="random" arrivalSpeed="0.00" depart="62157.60" departPos="random" departSpeed="0.00" id="c1h72213c1:3" type="passenger2b">
        <route edges="-31340#0 -31340#1 -31340#2 -31698 -31186#1 -31186#2 -31066#2 -32618#0 -32618#1 --30552"/>
    </vehicle>
    <vehicle arrivalPos="random" arrivalSpeed="0.00" depart="62157.60" departPos="random" departSpeed="0.00" id="h72213c1:3" type="passenger2b">
        <route edges="-31340#0 -31340#1 -31340#2 -31698 -31186#1 -31186#2 -31066#2 -32618#0 -32618#1 --30552"/>
    </vehicle>
    <vehicle arrivalPos="random" arrivalSpeed="0.00" depart="62158.00" departPos="random" departSpeed="0.00" id="c1h18116c1:3" type="passenger1">
        <route edges="-31340#0 -31340#1 -31340#2 -31340#3 -31340#4 -31066#1 -31066#2 -32618#0 -32618#1 --30552"/>
    </vehicle>
    <vehicle arrivalPos="random" arrivalSpeed="0.00" depart="62158.00" departPos="random" departSpeed="0.00" id="h18116c1:3" type="passenger2a">
        <route edges="-31340#0 -31340#1 --32208#1 --30740#0 --31214#0 --31340#0"/>
    </vehicle>
    <vehicle arrivalPos="random" arrivalSpeed="0.00" depart="62158.00" departPos="random" departSpeed="0.00" id="nrh01c1h18116c1:3" type="passenger1">
        <route edges="-31340#0 -31340#1 -31340#2 -31340#3 -31340#4 -31066#1 -31066#2 -32618#0 -32618#1 --30552"/>
    </vehicle>
    <vehicle arrivalPos="random" arrivalSpeed="0.00" depart="62166.49" departPos="random" departSpeed="0.00" id="c1randUni9967:1" type="passenger1">
        <route edges="--31066#8 --31066#7 --31066#6"/>
    </vehicle>
    <vehicle arrivalPos="random" arrivalSpeed="0.00" depart="62173.65" departPos="random" departSpeed="0.00" id="c1h71486c1:3" type="passenger1">
        <route edges="-30892#20 -30892#21 -30892#22 -30892#23 -30892#24 -30892#25 -32558"/>
    </vehicle>
    <vehicle arrivalPos="random" arrivalSpeed="0.00" depart="62176.20" departPos="random" departSpeed="0.00" id="c1h1279c1:3" type="passenger2a">
        <route edges="-31340#0 -31340#1 -31340#2 -31698 -31186#1 --32918#2 --32540 -32618#0 -32618#1 --30552 -31066#6 -31066#7 -31066#8"/>
    </vehicle>
    <vehicle arrivalPos="random" arrivalSpeed="0.00" depart="62176.20" departPos="random" departSpeed="0.00" id="h1279c1:3" type="passenger2a">
        <route edges="-31340#0 -31340#1 -31340#2 -31698 -31186#1 --32918#2 --32540 -32618#0 -32618#1 --30552 -31066#6 -31066#7 -31066#8"/>
    </vehicle>
    <vehicle arrivalPos="random" arrivalSpeed="0.00" depart="62176.20" departPos="random" departSpeed="0.00" id="nrh01c1h1279c1:3" type="passenger2a">
        <route edges="-31340#0 -31340#1 -31340#2 -31698 -31186#1 -31186#2 -31066#2 -32618#0 -32618#1 --30552 -31066#6 -31066#7 -31066#8"/>
    </vehicle>
    <vehicle arrivalPos="random" arrivalSpeed="0.00" depart="62177.17" departPos="random" departSpeed="0.00" id="h29731c2:3" type="passenger1">
        <route edges="-30552 --32618#1 --32618#0 --31066#2 --31066#1 --31340#4 --31340#3 --31340#2 --31340#1 --31340#0"/>
    </vehicle>
    <vehicle arrivalPos="random" arrivalSpeed="0.00" depart="62177.17" departPos="random" departSpeed="0.00" id="nrh01c1h29731c2:3" type="passenger3">
        <route edges="-30552 --32618#1 --32618#0 --31066#2 --31066#1 --31340#4 --31340#3 --31340#2 --31340#1 --31340#0"/>
    </vehicle>
    <vehicle arrivalPos="random" arrivalSpeed="0.00" depart="62179.44" departPos="random" departSpeed="0.00" id="c1h46608c1:3" type="passenger2a">
        <route edges="-30552 -32618#2 -32474#0 -32474#1 -32560 --32984#3 --32984#2 --32984#1 -30970#0 -30970#1"/>
    </vehicle>
    <vehicle arrivalPos="random" arrivalSpeed="0.00" depart="62179.44" departPos="random" departSpeed="0.00" id="h46608c1:3" type="passenger2b">
        <route edges="-30552 -32618#2 -32474#0 -32474#1 -32560 --32984#3 --32984#2 --32984#1 -30970#0 -30970#1"/>
    </vehicle>
    <vehicle arrivalPos="random" arrivalSpeed="0.00" depart="62193.17" departPos="random" departSpeed="0.00" id="nrh01h63473c1:3" type="passenger3">
        <route edges="-30892#23 -30892#24 -30892#25 -30892#26"/>
    </vehicle>
    <vehicle arrivalPos="random" arrivalSpeed="0.00" depart="62195.06" departPos="random" departSpeed="0.00" id="c1h55517c1:3" type="passenger1">
        <route edges="-31340#0 -31340#1 -31340#2 -31340#3 --30562#2 -30740#2 -32874#1 --32984#4 --32560 --32474#1 --32474#0 --32618#2 --30552"/>
    </vehicle>
    <vehicle arrivalPos="random" arrivalSpeed="0.00" depart="62195.06" departPos="random" departSpeed="0.00" id="h55517c1:3" type="passenger1">
        <route edges="-31340#0 -31340#1 -31340#2 -31340#3 --30562#2 -30740#2 -32874#1 --32984#4 --32560 --32474#1 --32474#0 --32618#2 --30552"/>
    </vehicle>
    <vehicle arrivalPos="random" arrivalSpeed="0.00" depart="62197.25" departPos="random" departSpeed="0.00" id="c1h29953c1:3" type="passenger1">
        <route edges="--31066#8 -30892#22 -30892#23 -30892#24 -30892#25 -30892#26"/>
    </vehicle>
    <vehicle arrivalPos="random" arrivalSpeed="0.00" depart="62197.25" departPos="random" departSpeed="0.00" id="h29953c1:3" type="passenger1">
        <route edges="--31066#8 -30892#22 -30892#23 -30892#24 -30892#25 -30892#26"/>
    </vehicle>
    <vehicle arrivalPos="random" arrivalSpeed="0.00" depart="62201.00" departPos="random" departSpeed="0.00" id="c1h26268c1:3" type="passenger3">
        <route edges="--30892#26 --30892#25 --30892#24 --30892#23 --30892#22 --30892#21 --30892#20"/>
    </vehicle>
    <vehicle arrivalPos="random" arrivalSpeed="0.00" depart="62201.00" departPos="random" departSpeed="0.00" id="h26268c1:3" type="passenger3">
        <route edges="--30892#26 --30892#25 --30892#24 --30892#23 --30892#22 --30892#21 --30892#20"/>
    </vehicle>
    <vehicle arrivalPos="random" arrivalSpeed="0.00" depart="62201.00" departPos="random" departSpeed="0.00" id="nrh01c1h26268c1:3" type="passenger3">
        <route edges="--30892#26 --30892#25 --30892#24 --30892#23 --30892#22 --30892#21 --30892#20"/>
    </vehicle>
    <vehicle arrivalPos="random" arrivalSpeed="0.00" depart="62206.79" departPos="random" departSpeed="0.00" id="c1randUni12520:1" type="passenger5">
        <route edges="-30892#20 -30892#21 -30892#22 -30892#23 -30892#24 -30892#25 -32558"/>
    </vehicle>
    <vehicle arrivalPos="random" arrivalSpeed="0.00" depart="62209.38" departPos="random" departSpeed="0.00" id="nrh01c1h25347c1:3" type="passenger2a">
        <route edges="--31066#8 -30892#22 -30892#23 -30892#24 -30892#25 -30892#26"/>
    </vehicle>
    <vehicle arrivalPos="random" arrivalSpeed="0.00" depart="62210.00" departPos="random" departSpeed="0.00" id="c1h73832c1:3" type="passenger2b">
        <route edges="-30348#5 -32914#2 -32914#3 -31066#0 --31340#4 --31340#3 --31340#2 --31340#1 --31340#0"/>
    </vehicle>
    <vehicle arrivalPos="random" arrivalSpeed="0.00" depart="62210.00" departPos="random" departSpeed="0.00" id="h73832c1:3" type="passenger2b">