<!-- generated with cutRoutes.py for lust.net.xml from ['due.local.actuated.0.rou.xml'] -->
<routes xmlns:xsi="http://www.w3.org/2001/XMLSchema-instance" xsi:noNamespaceSchemaLocation="http://sumo.dlr.de/xsd/routes_file.xsd">
    <vehicle arrivalPos="random" arrivalSpeed="0.00" depart="239.51" departPos="random" departSpeed="0.00" id="randUni1024:1" type="passenger2b">
        <route edges="-30892#20 -30892#21 -30892#22 -30892#23 -30892#24 -30892#25 -32558"/>
    </vehicle>
    <vehicle arrivalPos="random" arrivalSpeed="0.00" depart="301.99" departPos="random" departSpeed="0.00" id="randUni19500:1" type="passenger2b">
        <route edges="-30552 -32618#2 -32474#0 -32474#1 --30348#4 -31948#0 -31948#1 -32528#1 -32528#2 -32528#3 --30968#1"/>
    </vehicle>
    <vehicle arrivalPos="random" arrivalSpeed="0.00" depart="434.61" departPos="random" departSpeed="0.00" id="randUni1785:1" type="passenger1">
        <route edges="-31340#0 -31340#1 -31340#2 -31698 -31186#1 --32918#2 --32540 -32618#0 -32618#1 --30552 -31066#6 -31066#7 -31066#8"/>
    </vehicle>
    <vehicle arrivalPos="random" arrivalSpeed="0.00" depart="522.00" departPos="random" departSpeed="0.00" id="randUni7144:1" type="passenger1">
        <route edges="-32618#5 --30348#2 --30348#1 --30348#0 --30892#23 --30892#22 -31066#8"/>
    </vehicle>
    <vehicle arrivalPos="random" arrivalSpeed="0.00" depart="577.00" departPos="random" departSpeed="0.00" id="randUni18347:1" type="passenger1">
        <route edges="--30892#25 --30892#24 --30892#23 --30892#22 -31066#8"/>
    </vehicle>
    <vehicle arrivalPos="random" arrivalSpeed="0.00" depart="632.40" departPos="random" departSpeed="0.00" id="randUni4182:1" type="passenger1">
        <route edges="-31340#0 -31340#1 -31340#2 -31340#3 -31340#4 --31066#0 -32914#1 -32914#2 -32874#0 --30740#2"/>
    </vehicle>
    <vehicle arrivalPos="random" arrivalSpeed="0.00" depart="661.08" departPos="random" departSpeed="0.00" id="randUni3220:1" type="passenger2b">
        <route edges="--30892#26 --30892#25 --30892#24 --30892#23 --30892#22 --30892#21 --30892#20"/>
    </vehicle>
    <vehicle arrivalPos="random" arrivalSpeed="0.00" depart="753.00" departPos="random" departSpeed="0.00" id="randUni11559:1" type="passenger1">
        <route edges="-30740#0 -32208#1 --31340#1 --31340#0"/>
    </vehicle>
    <vehicle arrivalPos="random" arrivalSpeed="0.00" depart="775.29" departPos="random" departSpeed="0.00" id="randUni13901:1" type="passenger2b">
        <route edges="-31340#0 -31340#1 -31340#2 -31340#3 -31340#4 --31066#0 -32914#1 --30348#5 --30348#4 --30348#3 --32618#5 -30544"/>
    </vehicle>
    <vehicle arrivalPos="random" arrivalSpeed="0.00" depart="835.00" departPos="random" departSpeed="0.00" id="randUni15016:1" type="passenger2b">
        <route edges="-31340#1 -31340#2 -31340#3 -31340#4 --31066#0 -32914#1 --30348#5 --30348#4 --30348#3 --30348#2 --30348#1 --30348#0 --30892#23 --30892#22 --30892#21 --30892#20"/>
    </vehicle>
    <vehicle arrivalPos="random" arrivalSpeed="0.00" depart="880.00" departPos="random" departSpeed="0.00" id="randUni690:1" type="passenger2a">
        <route edges="-30968#2 -30968#3 --30348#1 --30348#0 --30892#23 --30892#22 --30892#21 --30892#20"/>
    </vehicle>
    <vehicle arrivalPos="random" arrivalSpeed="0.00" depart="886.00" departPos="random" departSpeed="0.00" id="randUni12682:1" type="passenger5">
        <route edges="--31066#4 --31066#3 --31066#2 --31066#1 --31340#4 --31340#3 --31340#2 --31340#1 --31340#0"/>
    </vehicle>
    <vehicle arrivalPos="random" arrivalSpeed="0.00" depart="906.09" departPos="random" departSpeed="0.00" id="randUni1008:1" type="passenger1">
        <route edges="-30892#20 -30892#21 -30892#22 -30892#23 -30348#0 -30348#1 -30348#2 -30348#3 -30348#4 -30348#5 -32914#2 -32874#0 --30740#2 -30562#2 -31340#4 --31066#0"/>
    </vehicle>
    <vehicle arrivalPos="random" arrivalSpeed="0.00" depart="949.00" departPos="random" departSpeed="0.00" id="randUni1444:1" type="passenger2a">
        <route edges="--30348#4 -31948#0 --30346#1 --30346#0 --30892#24 --30892#23 --30892#22 --30892#21 --30892#20"/>
    </vehicle>
    <vehicle arrivalPos="random" arrivalSpeed="0.00" depart="983.09" departPos="random" departSpeed="0.00" id="randUni7419:1" type="passenger1">
        <route edges="-30892#20 -30892#21 -30892#22 -30892#23 -30892#24 -30892#25 -30892#26"/>
    </vehicle>
    <vehicle arrivalPos="random" arrivalSpeed="0.00" depart="987.40" departPos="random" departSpeed="0.00" id="randUni5421:1" type="passenger2b">
        <route edges="-30892#20 -30892#21 -30892#22 -30892#23 -30348#0 -30348#1 --30968#3 --30968#2 --32528#3 -31826 -31740#1"/>
    </vehicle>
    <vehicle arrivalPos="random" arrivalSpeed="0.00" depart="1161.55" departPos="random" departSpeed="0.00" id="randUni5536:1" type="passenger5">
        <route edges="-30552 --32618#1 --32618#0 --31066#2 --31186#2 --31186#1 --31698 --31340#2 --31340#1 --31340#0"/>
    </vehicle>
    <vehicle arrivalPos="random" arrivalSpeed="0.00" depart="1207.37" departPos="random" departSpeed="0.00" id="randUni18554:1" type="passenger1">
        <route edges="--31066#8 --31066#7 --31066#6"/>
    </vehicle>
    <vehicle arrivalPos="random" arrivalSpeed="0.00" depart="1342.61" departPos="random" departSpeed="0.00" id="randUni9974:1" type="passenger2b">
        <route edges="-30892#20 -30892#21 -30892#22 -30892#23 -30348#0 -30348#1 --30968#3 --30968#2 --32528#3 --32528#2 --32528#1 --32528#0 --32984#2 --32984#1 -30970#0"/>
    </vehicle>
    <vehicle arrivalPos="random" arrivalSpeed="0.00" depart="1363.30" departPos="random" departSpeed="0.00" id="randUni11209:1" type="passenger2b">
        <route edges="-31340#0 -31340#1 -31340#2 -31698 -31186#1 --32918#2 --32540 -32618#0 -32618#1 --30552"/>
    </vehicle>
    <vehicle arrivalPos="random" arrivalSpeed="0.00" depart="1396.73" departPos="random" departSpeed="0.00" id="randUni16751:1" type="passenger4">
        <route edges="-30892#20 -30892#21 -30892#22 -30892#23 -30348#0 --32358 --30640#1"/>
    </vehicle>
    <vehicle arrivalPos="random" arrivalSpeed="0.00" depart="1397.17" departPos="random" departSpeed="0.00" id="randUni5067:1" type="passenger2a">
        <route edges="--32558 -30892#26"/>
    </vehicle>
    <vehicle arrivalPos="random" arrivalSpeed="0.00" depart="1466.00" departPos="random" departSpeed="0.00" id="randUni8293:1" type="passenger1">
        <route edges="--30640#0 -30640#2 -30348#1 -30348#2 --32618#5 --32618#4 --32618#3 --32618#2 --30552"/>
    </vehicle>
    <vehicle arrivalPos="random" arrivalSpeed="0.00" depart="1477.53" departPos="random" departSpeed="0.00" id="randUni18419:1" type="passenger2a">
        <route edges="--30892#26 -30832#0 -30832#1 -31814 -32984#0 -32984#1 -32984#2 -32984#3 --32560 --32474#1 -30522 -32618#1 --30552"/>
    </vehicle>
    <vehicle arrivalPos="random" arrivalSpeed="0.00" depart="1537.00" departPos="random" departSpeed="0.00" id="randUni18499:1" type="passenger1">
        <route edges="-32914#1 -32914#2 -32914#3 -31066#0 -31066#1 -31066#2 -32618#0 -32618#1 --30552"/>
    </vehicle>
    <vehicle arrivalPos="random" arrivalSpeed="0.00" depart="1587.92" departPos="random" departSpeed="0.00" id="randUni11061:1" type="passenger4">
        <route edges="--30892#26 -30832#0 -30832#1 -31814 -32984#0 -32984#1 -32984#2 -32528#0 -32528#1 -32528#2 -32528#3 -30968#2 -30968#3 --30348#1 --30348#0 --30892#23 --30892#22 -31066#8"/>
    </vehicle>
    <vehicle arrivalPos="random" arrivalSpeed="0.00" depart="1614.70" departPos="random" departSpeed="0.00" id="randUni17833:1" type="passenger2a">
        <route edges="-30892#20 -30892#21 --31066#7 --31066#6"/>
    </vehicle>
    <vehicle arrivalPos="random" arrivalSpeed="0.00" depart="1721.67" departPos="random" departSpeed="0.00" id="randUni12109:1" type="passenger4">
        <route edges="-30892#20 -30892#21 -30892#22 -30892#23 -30892#24 -30892#25 -30892#26"/>
    </vehicle>
    <vehicle arrivalPos="random" arrivalSpeed="0.00" depart="1744.49" departPos="random" departSpeed="0.00" id="randUni15024:1" type="passenger2a">
        <route edges="-30552 -32618#2 -32474#0 -32474#1 -32560 --32984#3 --32984#2 --32984#1 --32984#0"/>
    </vehicle>
    <vehicle arrivalPos="random" arrivalSpeed="0.00" depart="1746.00" departPos="random" departSpeed="0.00" id="randUni15028:1" type="passenger1">
        <route edges="--32918#0 --31066#3 -32618#0 --30522 -32474#1 -32560 --32984#3 -32528#0 -32528#1 -32528#2"/>
    </vehicle>
    <vehicle arrivalPos="random" arrivalSpeed="0.00" depart="1815.67" departPos="random" departSpeed="0.00" id="randUni5874:1" type="passenger2a">
        <route edges="-31340#0 -31340#1 -31340#2 -31340#3 -31340#4 --31066#0 -32914#1 --30348#5 --30348#4 -31948#0 -31948#1 -32528#1 -32528#2 -31826 --31740#0 --30968#0 -30970#2 --30832#0 -32558"/>
    </vehicle>
    <vehicle arrivalPos="random" arrivalSpeed="0.00" depart="1853.00" departPos="random" departSpeed="0.00" id="randUni4895:1" type="passenger1">
        <route edges="--32874#0 -32914#3 -31066#0 -31066#1 -31066#2 -32618#0 -32618#1 --30552"/>
    </vehicle>
    <vehicle arrivalPos="random" arrivalSpeed="0.00" depart="1857.15" departPos="random" departSpeed="0.00" id="randUni4890:1" type="passenger2a">
        <route edges="-31340#0 -31340#1 -31340#2 -31340#3 -31340#4 --31066#0 -32914#1 --30348#5 --30348#4 --30348#3 --30348#2 --30348#1 --30348#0 --30892#23"/>
    </vehicle>
    <vehicle arrivalPos="random" arrivalSpeed="0.00" depart="2312.44" departPos="random" departSpeed="0.00" id="randUni18177:1" type="passenger1">
        <route edges="--30892#26 -30832#0 -30832#1 -31814 -32984#0 -32984#1 -32332#0 --32874#2 --32874#1 --32874#0 -32914#3 -31066#0 -31066#1 -31066#2 -31066#3 -31066#4 -31066#5"/>
    </vehicle>
    <vehicle arrivalPos="random" arrivalSpeed="0.00" depart="2360.51" departPos="random" departSpeed="0.00" id="randUni6332:1" type="passenger1">
        <route edges="--30892#26 --30892#25 --30892#24 --30892#23 --30892#22 --30892#21 --30892#20"/>
    </vehicle>
    <vehicle arrivalPos="random" arrivalSpeed="0.00" depart="2461.19" departPos="random" departSpeed="0.00" id="randUni15613:1" type="passenger1">
        <route edges="-30892#20 -30892#21 --31066#7 --31066#6 -30552 --32618#1 --32618#0 -32540 -32918#2 --31186#1"/>
    </vehicle>
    <vehicle arrivalPos="random" arrivalSpeed="0.00" depart="2581.00" departPos="random" departSpeed="0.00" id="randUni12881:1" type="passenger2b">
        <route edges="--30892#22 --30892#21 --30892#20"/>
    </vehicle>
    <vehicle arrivalPos="random" arrivalSpeed="0.00" depart="2621.00" departPos="random" departSpeed="0.00" id="randUni18802:1" type="passenger2b">
        <route edges="-32914#1 -32914#2 -32914#3 -31066#0 --31340#4 --31340#3 --31340#2 --31340#1 --31340#0"/>
    </vehicle>
    <vehicle arrivalPos="random" arrivalSpeed="0.00" depart="2647.30" departPos="random" departSpeed="0.00" id="randUni3822:1" type="passenger1">
        <route edges="--32558 -30892#26"/>
    </vehicle>
    <vehicle arrivalPos="random" arrivalSpeed="0.00" depart="2725.00" departPos="random" departSpeed="0.00" id="randUni1025:1" type="passenger1">
        <route edges="--31066#3 -32618#0 -32618#1 --30552 -31066#6 -31066#7 --30892#21 --30892#20"/>
    </vehicle>
    <vehicle arrivalPos="random" arrivalSpeed="0.00" depart="2801.93" departPos="random" departSpeed="0.00" id="randUni12355:1" type="passenger2b">
        <route edges="-30552 -32618#2 -32618#3 -32618#4 -32618#5 --30348#2 --30968#3 --30346#0 -30892#25 -30892#26"/>
    </vehicle>
    <vehicle arrivalPos="random" arrivalSpeed="0.00" depart="2824.00" departPos="random" departSpeed="0.00" id="randUni8128:1" type="passenger2b">
        <route edges="--31948#0 --30348#3 --32618#5 --32618#4 --32618#3 -32474#0 -32474#1 -30348#5 -32914#2 -32914#3 -31066#0 --31340#4 --31340#3 --31340#2 --31340#1 --31340#0"/>
    </vehicle>
    <vehicle arrivalPos="random" arrivalSpeed="0.00" depart="2862.58" departPos="random" departSpeed="0.00" id="randUni660:1" type="passenger2a">
        <route edges="-30892#20 -30892#21 --31066#7 --31066#6 -30552 --32618#1 --32618#0 --31066#2 --31066#1 --31340#4 --31340#3 --31340#2 --31340#1 --31340#0"/>
    </vehicle>
    <vehicle arrivalPos="random" arrivalSpeed="0.00" depart="2863.00" departPos="random" departSpeed="0.00" id="randUni4891:1" type="passenger5">
        <route edges="-31066#2 -32618#0 -32618#1 --30552 -31066#6 -31066#7 --30892#21 --30892#20"/>
    </vehicle>
    <vehicle arrivalPos="random" arrivalSpeed="0.00" depart="3149.00" departPos="random" departSpeed="0.00" id="randUni16659:1" type="passenger2a">
        <route edges="-32874#2 --32332#0 -32984#2 -32528#0 -32528#1 -32528#2 -32528#3 -30968#2 -30968#3 --30348#1 --30348#0 --30892#23 --30892#22 --30892#21 --30892#20"/>
    </vehicle>
    <vehicle arrivalPos="random" arrivalSpeed="0.00" depart="3152.13" departPos="random" departSpeed="0.00" id="randUni9525:1" type="passenger1">
        <route edges="-30552 -32618#2 -32474#0 -32474#1 -32560 --32984#3 --32984#2 -32332#0"/>
    </vehicle>
    <vehicle arrivalPos="random" arrivalSpeed="0.00" depart="3221.71" departPos="random" departSpeed="0.00" id="randUni14352:1" type="passenger1">
        <route edges="-31340#0 -31340#1 -31340#2 -31340#3 -31340#4 -31066#1"/>
    </vehicle>
    <vehicle arrivalPos="random" arrivalSpeed="0.00" depart="3333.00" departPos="random" departSpeed="0.00" id="randUni472:1" type="passenger1">
        <route edges="--30346#0 --30892#24 --30892#23 --30892#22 --30892#21 --30892#20"/>
    </vehicle>
    <vehicle arrivalPos="random" arrivalSpeed="0.00" depart="3471.00" departPos="random" departSpeed="0.00" id="randUni15698:1" type="passenger1">
        <route edges="--30892#20"/>
    </vehicle>
    <vehicle arrivalPos="random" arrivalSpeed="0.00" depart="3563.76" departPos="random" departSpeed="0.00" id="randUni5761:1" type="passenger1">
        <route edges="-31340#0 -31340#1 -31340#2 -31340#3 -31340#4 --31066#0 -32914#1 --30348#5 --30348#4 --30348#3 --30348#2 --30968#3 --30346#0 -30892#25 -32558"/>
    </vehicle>
    <vehicle arrivalPos="random" arrivalSpeed="0.00" depart="3633.00" departPos="random" departSpeed="0.00" id="randUni13708:1" type="passenger1">
        <route edges="-32874#1 --32984#4 --32560 --30348#4 --30348#3 --30348#2 --30348#1 --30348#0 --30892#23 --30892#22 -31066#8"/>
    </vehicle>
    <vehicle arrivalPos="random" arrivalSpeed="0.00" depart="3749.55" departPos="random" departSpeed="0.00" id="randUni17538:1" type="passenger1">
        <route edges="--30892#26 --30892#25 --30892#24 --30892#23 --30892#22 --30892#21 --30892#20"/>
    </vehicle>
    <vehicle arrivalPos="random" arrivalSpeed="0.00" depart="3758.79" departPos="random" departSpeed="0.00" id="randUni17830:1" type="passenger1">
        <route edges="-30892#20 -30892#21 -30892#22 -30892#23 -30892#24 -30892#25 -30892#26"/>
    </vehicle>
    <vehicle arrivalPos="random" arrivalSpeed="0.00" depart="3760.00" departPos="random" departSpeed="0.00" id="randUni17743:1" type="passenger1">
        <route edges="-31066#0 --31340#4 --31340#3 --31340#2 --31340#1 --31340#0"/>
    </vehicle>
    <vehicle arrivalPos="random" arrivalSpeed="0.00" depart="3931.36" departPos="random" departSpeed="0.00" id="randUni15731:1" type="passenger1">
        <route edges="-30892#20 -30892#21 -30892#22 -30892#23 -30348#0 -30348#1 -30348#2 --32618#5 --32618#4 --32618#3 -32474#0"/>
    </vehicle>
    <vehicle arrivalPos="random" arrivalSpeed="0.00" depart="3999.36" departPos="random" departSpeed="0.00" id="randUni7076:1" type="passenger2b">
        <route edges="-30892#20 -30892#21 -30892#22 -30892#23 -30892#24 -30892#25 -30892#26"/>
    </vehicle>
    <vehicle arrivalPos="random" arrivalSpeed="0.00" depart="4021.00" departPos="random" departSpeed="0.00" id="randUni11606:1" type="passenger1">
        <route edges="-30552 --32618#1 --32618#0 -31066#3 -31066#4 -31066#5"/>
    </vehicle>
    <vehicle arrivalPos="random" arrivalSpeed="0.00" depart="4062.44" departPos="random" departSpeed="0.00" id="randUni12113:1" type="passenger2b">
        <route edges="--30892#26 -32558"/>
    </vehicle>
    <vehicle arrivalPos="random" arrivalSpeed="0.00" depart="4070.14" departPos="random" departSpeed="0.00" id="randUni18470:1" type="passenger3">
        <route edges="-30892#20 -30892#21 -30892#22 -30892#23 -30348#0 -30348#1 -30348#2 -30348#3 -31948#0"/>
    </vehicle>
    <vehicle arrivalPos="random" arrivalSpeed="0.00" depart="4098.00" departPos="random" departSpeed="0.00" id="randUni15899:1" type="passenger3">
        <route edges="-31340#4 -31066#1 --31186#2 --31186#1 --31698 --31340#2 --31340#1 --31340#0"/>
    </vehicle>
    <vehicle arrivalPos="random" arrivalSpeed="0.00" depart="4139.95" departPos="random" departSpeed="0.00" id="randUni3030:1" type="passenger4">
        <route edges="-30892#20 -30892#21 -30892#22 -30892#23 -30348#0 -30348#1 --30968#3 --30968#2 --32528#3 --32528#2 --32528#1 --32528#0 --32984#2 -32332#0 -32332#1"/>
    </vehicle>
    <vehicle arrivalPos="random" arrivalSpeed="0.00" depart="4194.11" departPos="random" departSpeed="0.00" id="randUni16252:1" type="passenger2a">
        <route edges="-31340#0 -31340#1 -31340#2 -31340#3 -31340#4 -31066#1 --31186#2 --31186#1 --31698"/>
    </vehicle>
    <vehicle arrivalPos="random" arrivalSpeed="0.00" depart="4238.26" departPos="random" departSpeed="0.00" id="randUni8847:1" type="passenger2a">
        <route edges="-31340#0 -31340#1 -31340#2 -31698 -31186#1 --32918#2 --32540 -32618#0 -32618#1 --30552 -31066#6 -31066#7 --30892#21 --30892#20"/>
    </vehicle>
    <vehicle arrivalPos="random" arrivalSpeed="0.00" depart="4341.52" departPos="random" departSpeed="0.00" id="randUni10370:1" type="passenger2b">
        <route edges="--32558 -30832#0 -30832#1 -31814 -32984#0 -32984#1 -32332#0 --32874#2 --31214#3 -30562#1 -30562#2 --31340#3 --31340#2 --31340#1 --31340#0"/>
    </vehicle>
    <vehicle arrivalPos="random" arrivalSpeed="0.00" depart="4424.91" departPos="random" departSpeed="0.00" id="randUni8307:1" type="passenger1">
        <route edges="--30892#26 --30892#25 --30892#24 --30892#23 --30892#22 --30892#21 --30892#20"/>
    </vehicle>
    <vehicle arrivalPos="random" arrivalSpeed="0.00" depart="4490.00" departPos="random" departSpeed="0.00" id="randUni12177:1" type="passenger2a">
        <route edges="--31340#3 -31698 -31186#1 --32918#2 --32540 -32618#0 -32618#1 --30552 -31066#6 -31066#7 --30892#21 --30892#20"/>
    </vehicle>
    <vehicle arrivalPos="random" arrivalSpeed="0.00" depart="4492.14" departPos="random" departSpeed="0.00" id="randUni12565:1" type="passenger4">
        <route edges="-31340#0 -31340#1 -31340#2 -31340#3 -31340#4 -31066#1 -31066#2 -32618#0 -32618#1 --30552 -31066#6 -31066#7 --30892#21 --30892#20"/>
    </vehicle>
    <vehicle arrivalPos="random" arrivalSpeed="0.00" depart="4514.40" departPos="random" departSpeed="0.00" id="randUni20482:1" type="passenger2b">
        <route edges="-30892#20 -30892#21 --31066#7 --31066#6 -30552 --32618#1 --32618#0 --31066#2 --31066#1 --31340#4 --31340#3 --31340#2 --31340#1 --31340#0"/>
    </vehicle>
    <vehicle arrivalPos="random" arrivalSpeed="0.00" depart="4669.09" departPos="random" departSpeed="0.00" id="randUni7309:1" type="passenger1">
        <route edges="--30892#26 --30892#25 --30892#24 --30892#23 --30892#22 --30892#21"/>
    </vehicle>
    <vehicle arrivalPos="random" arrivalSpeed="0.00" depart="4837.37" departPos="random" departSpeed="0.00" id="randUni14079:1" type="passenger1">
        <route edges="-30892#20 -30892#21 -30892#22 -30892#23 -30348#0 -30348#1 --30968#3 --30968#2 --30968#1 --30968#0 -30970#2 -30832#1"/>
    </vehicle>
    <vehicle arrivalPos="random" arrivalSpeed="0.00" depart="4917.00" departPos="random" departSpeed="0.00" id="randUni9888:1" type="passenger2a">
        <route edges="--31186#1 --31698 -31340#3 --30562#2 --30562#1 --30562#0 --32332#0 --32984#1 -30970#0 -30970#1 -30970#2 --30832#0 -30892#26"/>
    </vehicle>
    <vehicle arrivalPos="random" arrivalSpeed="0.00" depart="5023.00" departPos="random" departSpeed="0.00" id="randUni14637:1" type="passenger1">
        <route edges="-32618#5 --30348#2 --30348#1 --30348#0 --30892#23 --30892#22 --30892#21 --30892#20"/>
    </vehicle>
    <vehicle arrivalPos="random" arrivalSpeed="0.00" depart="5165.00" departPos="random" departSpeed="0.00" id="randUni4298:1" type="passenger2a">
        <route edges="-32918#2 -31186#2 --31066#1 --31066#0 -32914#1 --30348#5 --30348#4 --30348#3 --30348#2 --30348#1 --30348#0 --30892#23"/>
    </vehicle>
    <vehicle arrivalPos="random" arrivalSpeed="0.00" depart="5217.00" departPos="random" departSpeed="0.00" id="randUni4479:1" type="passenger2a">
        <route edges="-30562#1 -30562#2 --31340#3 --31340#2 --31340#1 --31340#0"/>
    </vehicle>
    <vehicle arrivalPos="random" arrivalSpeed="0.00" depart="5247.60" departPos="random" departSpeed="0.00" id="randUni13148:1" type="passenger1">
        <route edges="-31340#0 -31340#1 -31340#2 -31340#3 -31340#4 --31066#0 -32914#1 --30348#5 -32560 --32984#3 -32528#0 -32528#1"/>
    </vehicle>
    <vehicle arrivalPos="random" arrivalSpeed="0.00" depart="5508.78" departPos="random" departSpeed="0.00" id="randUni12450:1" type="passenger2a">
        <route edges="-30892#20 -30892#21 -30892#22"/>
    </vehicle>
    <vehicle arrivalPos="random" arrivalSpeed="0.00" depart="5519.13" departPos="random" departSpeed="0.00" id="randUni16055:1" type="passenger1">
        <route edges="-30892#20 -30892#21 -30892#22 -30892#23 -30892#24 -30892#25 -30892#26"/>
    </vehicle>
    <vehicle arrivalPos="random" arrivalSpeed="0.00" depart="5601.00" departPos="random" departSpeed="0.00" id="randUni2380:1" type="passenger3">
        <route edges="--31740#1 --31826 -32528#3 -30968#2 --30346#0 --30892#24 --30892#23 --30892#22 --30892#21 --30892#20"/>
    </vehicle>
    <vehicle arrivalPos="random" arrivalSpeed="0.00" depart="5674.70" departPos="random" departSpeed="0.00" id="randUni4615:1" type="passenger2a">
        <route edges="-30892#20 -30892#21 -30892#22 -30892#23 -30348#0 -30348#1 -30348#2 --32618#5 --32618#4 -32794#0 -32438"/>
    </vehicle>
    <vehicle arrivalPos="random" arrivalSpeed="0.00" depart="5740.00" departPos="random" departSpeed="0.00" id="randUni17170:1" type="passenger2b">
        <route edges="-31340#0 -31340#1 -31340#2 -31698 -31186#1 -31186#2 -31066#2 -32618#0 -32618#1 --30552"/>
    </vehicle>
    <vehicle arrivalPos="random" arrivalSpeed="0.00" depart="5831.87" departPos="random" departSpeed="0.00" id="randUni61:1" type="passenger1">
        <route edges="--32558 -30832#0 -30832#1 -31814 -32984#0 -32984#1 -32332#0 -32332#1 -30562#1 -30562#2 --31340#3 --31340#2 --31340#1 --31340#0"/>
    </vehicle>
    <vehicle arrivalPos="random" arrivalSpeed="0.00" depart="5864.17" departPos="random" departSpeed="0.00" id="randUni17321:1" type="passenger2b">
        <route edges="--30892#26 -32558"/>
    </vehicle>
    <vehicle arrivalPos="random" arrivalSpeed="0.00" depart="5913.00" departPos="random" departSpeed="0.00" id="randUni4775:1" type="passenger2b">
        <route edges="-31186#0 -31186#1 -31186#2 -31066#2 -32618#0 -32618#1 --30552"/>
    </vehicle>
    <vehicle arrivalPos="random" arrivalSpeed="0.00" depart="5991.57" departPos="random" departSpeed="0.00" id="randUni2884:1" type="passenger2b">
        <route edges="-30892#20 -30892#21 -30892#22 -30892#23 -30348#0 -30348#1 -30348#2 -30348#3 -30348#4 -30348#5 -32914#2 -32874#0 --30740#2 --30740#1 --30740#0 --31214#0"/>
    </vehicle>
    <vehicle arrivalPos="random" arrivalSpeed="0.00" depart="6011.35" departPos="random" departSpeed="0.00" id="randUni9783:1" type="passenger3">
        <route edges="-30892#20 -30892#21 -30892#22 -30892#23 -30348#0 -30348#1 --30968#3 --30968#2 --30968#1 --30968#0 -30970#2 --30832#0 -32558"/>
    </vehicle>
    <vehicle arrivalPos="random" arrivalSpeed="0.00" depart="6125.45" departPos="random" departSpeed="0.00" id="randUni11346:1" type="passenger2b">
        <route edges="--32558 -30892#26"/>
    </vehicle>
    <vehicle arrivalPos="random" arrivalSpeed="0.00" depart="6164.00" departPos="random" departSpeed="0.00" id="randUni13734:1" type="passenger1">
        <route edges="-32528#2 -32528#3 -30968#2 --30346#0 --30892#24 --30892#23 --30892#22 --30892#21 --30892#20"/>
    </vehicle>
    <vehicle arrivalPos="random" arrivalSpeed="0.00" depart="6173.26" departPos="random" departSpeed="0.00" id="randUni9322:1" type="passenger1">
        <route edges="-30892#20 -30892#21 -30892#22 -30892#23 -30348#0 -30348#1 -30348#2 -30348#3 -30348#4 -30348#5 -32914#2 -32914#3"/>
    </vehicle>
    <vehicle arrivalPos="random" arrivalSpeed="0.00" depart="6178.00" departPos="random" departSpeed="0.00" id="randUni1698:1" type="passenger1">
        <route edges="-32914#1 -32914#2 -32874#0 -32874#1 --32984#4 --32560 --30348#4 --30348#3 --30348#2 --30348#1 --30348#0 --30892#23 --30892#22 --30892#21 --30892#20"/>
    </vehicle>
    <vehicle arrivalPos="random" arrivalSpeed="0.00" depart="6259.08" departPos="random" departSpeed="0.00" id="randUni1478:1" type="passenger1">
        <route edges="-31340#0 -31340#1 -31340#2 -31698 -31186#1 --32918#2 --32540 -32618#0 -32618#1 --30552 -31066#6 -31066#7 -31066#8"/>
    </vehicle>
    <vehicle arrivalPos="random" arrivalSpeed="0.00" depart="6266.44" departPos="random" departSpeed="0.00" id="randUni13855:1" type="passenger2b">
        <route edges="-31340#0 -31340#1 -31340#2 -31340#3 -31340#4 -31066#1 -31066#2 -32618#0 -32618#1 --30552"/>
    </vehicle>
    <vehicle arrivalPos="random" arrivalSpeed="0.00" depart="6393.00" departPos="random" departSpeed="0.00" id="randUni833:1" type="passenger2a">
        <route edges="-31340#1 -31340#2 -31340#3 --30562#2 --30740#1 -32208#1 --31340#1 --31340#0"/>
    </vehicle>
    <vehicle arrivalPos="random" arrivalSpeed="0.00" depart="6433.18" departPos="random" departSpeed="0.00" id="randUni18015:1" type="passenger1">
        <route edges="-30892#20 -30892#21 --31066#7 --31066#6 -30552 --32618#1 --32618#0 --31066#2 --31066#1 --31340#4 --31340#3 --31340#2 --31340#1 --31340#0"/>
    </vehicle>
    <vehicle arrivalPos="random" arrivalSpeed="0.00" depart="6438.81" departPos="random" departSpeed="0.00" id="randUni19129:1" type="passenger2a">
        <route edges="-30892#20 -30892#21 -30892#22 -30892#23 -30348#0 -30348#1 --30968#3 --30968#2 --30968#1 --30968#0 -30970#2 --30832#0 -30892#26"/>
    </vehicle>
    <vehicle arrivalPos="random" arrivalSpeed="0.00" depart="6913.58" departPos="random" departSpeed="0.00" id="randUni15760:1" type="passenger3">
        <route edges="-30892#21 --31066#7 --31066#6 -30552 --32618#1 --32618#0 --31066#2 --31066#1 --31340#4 --31340#3 --31340#2 --31340#1 --31340#0"/>
    </vehicle>
    <vehicle arrivalPos="random" arrivalSpeed="0.00" depart="7105.00" departPos="random" departSpeed="0.00" id="randUni2045:1" type="passenger3">
        <route edges="-32528#1 -32528#2 -32528#3 -30968#2 -30968#3 --30348#1 --30348#0 --30892#23 --30892#22 --30892#21 --30892#20"/>
    </vehicle>
    <vehicle arrivalPos="random" arrivalSpeed="0.00" depart="7191.00" departPos="random" departSpeed="0.00" id="randUni11768:1" type="passenger2a">
        <route edges="--32618#2 --32618#1 --32618#0 -32540 -32918#2 --31186#1 --31698 --31340#2 --32208#1"/>
    </vehicle>
    <vehicle arrivalPos="random" arrivalSpeed="0.00" depart="7313.00" departPos="random" departSpeed="0.00" id="randUni11395:1" type="passenger2b">
        <route edges="-32618#3 -32794#0 -32438 --31066#6"/>
    </vehicle>
    <vehicle arrivalPos="random" arrivalSpeed="0.00" depart="7343.15" departPos="random" departSpeed="0.00" id="randUni4573:1" type="passenger1">
        <route edges="--30892#26 --30892#25 --30892#24 --30892#23 --30892#22 --30892#21 --30892#20"/>
    </vehicle>
    <vehicle arrivalPos="random" arrivalSpeed="0.00" depart="7409.47" departPos="random" departSpeed="0.00" id="randUni8452:1" type="passenger2b">
        <route edges="-30892#23 -30348#0 --32358 --30640#1"/>
    </vehicle>
    <vehicle arrivalPos="random" arrivalSpeed="0.00" depart="7422.46" departPos="random" departSpeed="0.00" id="randUni16514:1" type="passenger2b">
        <route edges="-31340#0 -31340#1 -31340#2 -31340#3 -31340#4 -31066#1 -31066#2 -32618#0 -32618#1 --30552"/>
    </vehicle>
    <vehicle arrivalPos="random" arrivalSpeed="0.00" depart="7446.72" departPos="random" departSpeed="0.00" id="randUni10886:1" type="passenger3">
        <route edges="-31340#0 -31340#1 -31340#2 -31698 -31186#1 --32918#2 --32540 -32618#0 -32618#1 --30552"/>
    </vehicle>
    <vehicle arrivalPos="random" arrivalSpeed="0.00" depart="7483.00" departPos="random" departSpeed="0.00" id="randUni11111:1" type="passenger1">
        <route edges="-32618#0 --30522 -32474#1 -30348#5 -32914#2 -32914#3 -31066#0 --31340#4 --31340#3 --31340#2 --31340#1 --31340#0"/>
    </vehicle>
    <vehicle arrivalPos="random" arrivalSpeed="0.00" depart="7491.00" departPos="random" departSpeed="0.00" id="randUni12599:1" type="passenger1">
        <route edges="-32618#5 -30348#3 -30348#4 --32474#1 --32474#0 --32618#2 --30552"/>
    </vehicle>
    <vehicle arrivalPos="random" arrivalSpeed="0.00" depart="7507.44" departPos="random" departSpeed="0.00" id="randUni5704:1" type="passenger2b">
        <route edges="-30552 -32618#2 -32474#0 -32474#1 --30348#4 -31948#0 -31948#1 -31948#2 -30970#1 -30970#2 --30832#0 -32558"/>
    </vehicle>
    <vehicle arrivalPos="random" arrivalSpeed="0.00" depart="7542.25" departPos="random" departSpeed="0.00" id="randUni17623:1" type="passenger1">
        <route edges="-30892#20 -30892#21 -30892#22 -30892#23 -30348#0 -30348#1 --30968#3 --30968#2 --32528#3 --32528#2 --32528#1 --32528#0 --32984#2 -32332#0 -32332#1 -30562#1"/>
    </vehicle>
    <vehicle arrivalPos="random" arrivalSpeed="0.00" depart="7761.29" departPos="random" departSpeed="0.00" id="randUni17005:1" type="passenger1">
        <route edges="-31340#0 -31340#1 -31340#2 -31698 -31186#1 --32918#2 --32540 --31066#2"/>