<!-- generated with cutRoutes.py for lust.net.xml from ['due.local.actuated.1.rou.xml'] -->
<routes xmlns:xsi="http://www.w3.org/2001/XMLSchema-instance" xsi:noNamespaceSchemaLocation="http://sumo.dlr.de/xsd/routes_file.xsd">
    <vehicle arrivalPos="random" arrivalSpeed="0.00" depart="35653.00" departPos="random" departSpeed="0.00" id="h4254c1:1" type="passenger1">
        <route edges="--30562#1 --31214#2 -32208#0 -32208#1 --31340#1 --31340#0"/>
    </vehicle>
    <vehicle arrivalPos="random" arrivalSpeed="0.00" depart="35666.00" departPos="random" departSpeed="0.00" id="h4261c2:1" type="passenger3">
        <route edges="--30562#2 --30562#1 --30562#0 --32332#0 --32984#1 -30970#0 -30970#1 -30970#2 --30832#0 -30892#26"/>
    </vehicle>
    <vehicle arrivalPos="random" arrivalSpeed="0.00" depart="35679.00" departPos="random" departSpeed="0.00" id="h60676c1:1" type="passenger1">
        <route edges="-31948#2 -30970#1 -30968#0 -30968#1 -30968#2 --30346#0 --30892#24 --30892#23 --30892#22 --30892#21 --30892#20"/>
    </vehicle>
    <vehicle arrivalPos="random" arrivalSpeed="0.00" depart="35689.81" departPos="random" departSpeed="0.00" id="randUni14709:1" type="passenger1">
        <route edges="--30892#26 --30892#25 --30892#24 --30892#23 --30892#22 --30892#21 --30892#20"/>
    </vehicle>
    <vehicle arrivalPos="random" arrivalSpeed="0.00" depart="35701.00" departPos="random" departSpeed="0.00" id="h45541c2:1" type="passenger1">
        <route edges="--30348#0 --30892#23 --30892#22 -31066#8"/>
    </vehicle>
    <vehicle arrivalPos="random" arrivalSpeed="0.00" depart="35703.00" departPos="random" departSpeed="0.00" id="h40397c1:1" type="passenger1">
        <route edges="-30552 --32618#1 --32618#0 --31066#2 --31066#1 --31340#4 --31340#3 --31340#2 --31340#1 --31340#0"/>
    </vehicle>
    <vehicle arrivalPos="random" arrivalSpeed="0.00" depart="35715.47" departPos="random" departSpeed="0.00" id="h24590c1:1" type="passenger1">
        <route edges="--30892#26 --30892#25 --30892#24 --30892#23 --30892#22 -31066#8"/>
    </vehicle>
    <vehicle arrivalPos="random" arrivalSpeed="0.00" depart="35728.00" departPos="random" departSpeed="0.00" id="h67437c1:1" type="passenger1">
        <route edges="-32438 --31066#6 -30552 --32618#1 --32618#0 --31066#2 --31186#2 --31186#1 --31698 --31340#2 --31340#1 --31340#0"/>
    </vehicle>
    <vehicle arrivalPos="random" arrivalSpeed="0.00" depart="35730.00" departPos="random" departSpeed="0.00" id="h29361c1:1" type="passenger2a">
        <route edges="--32474#1 --32474#0 --32618#2 --30552"/>
    </vehicle>
    <vehicle arrivalPos="random" arrivalSpeed="0.00" depart="35732.23" departPos="random" departSpeed="0.00" id="h9575c1:1" type="passenger1">
        <route edges="--31066#5 --31066#4 --31066#3 --31066#2 --31066#1 --31340#4 --31340#3 --31340#2 --31340#1 --31340#0"/>
    </vehicle>
    <vehicle arrivalPos="random" arrivalSpeed="0.00" depart="35737.00" departPos="random" departSpeed="0.00" id="h9722c2:1" type="passenger1">
        <route edges="--30968#0 -30970#2 --30832#0 --30892#25 --30892#24 --30892#23 --30892#22 -31066#8"/>
    </vehicle>
    <vehicle arrivalPos="random" arrivalSpeed="0.00" depart="35737.14" departPos="random" departSpeed="0.00" id="h43939c1:1" type="passenger5">
        <route edges="--30892#26 --30892#25 --30892#24 --30892#23 --30892#22 --30892#21 --30892#20"/>
    </vehicle>
    <vehicle arrivalPos="random" arrivalSpeed="0.00" depart="35750.88" departPos="random" departSpeed="0.00" id="h46388c1:1" type="passenger3">
        <route edges="-30552 --32618#1 --32618#0 --31066#2 --31186#2 --31186#1 --31698 --31340#2 --31340#1 --31340#0"/>
    </vehicle>
    <vehicle arrivalPos="random" arrivalSpeed="0.00" depart="35763.65" departPos="random" departSpeed="0.00" id="h38214c1:1" type="passenger2a">
        <route edges="--32558 -30892#26"/>
    </vehicle>
    <vehicle arrivalPos="random" arrivalSpeed="0.00" depart="35775.87" departPos="random" departSpeed="0.00" id="h48442c1:1" type="passenger1">
        <route edges="--32558 -30892#26"/>
    </vehicle>
    <vehicle arrivalPos="random" arrivalSpeed="0.00" depart="35794.97" departPos="random" departSpeed="0.00" id="h19597c1:1" type="passenger1">
        <route edges="-31340#0 -31340#1 -31340#2 -31340#3 --30562#2 --30562#1 --30562#0 --32332#0 --32984#1 -30970#0 -30970#1 -30970#2 --30832#0 -32558"/>
    </vehicle>
    <vehicle arrivalPos="random" arrivalSpeed="0.00" depart="35795.00" departPos="random" departSpeed="0.00" id="h46622c1:1" type="passenger5">
        <route edges="-30970#1 -30970#2 --30832#0 -30892#26"/>
    </vehicle>
    <vehicle arrivalPos="random" arrivalSpeed="0.00" depart="35797.00" departPos="random" departSpeed="0.00" id="h47905c1:1" type="passenger2b">
        <route edges="-31066#1 -31066#2 -31066#3 -31066#4 -31066#5 -31066#6 -31066#7 -31066#8"/>
    </vehicle>
    <vehicle arrivalPos="random" arrivalSpeed="0.00" depart="35800.78" departPos="random" departSpeed="0.00" id="h25225c1:1" type="passenger1">
        <route edges="-30552 -32618#2 -32618#3 -32618#4 -32618#5 --30348#2 --30968#3 --30968#2 --30968#1 --30968#0 -30970#2 --30832#0 -32558"/>
    </vehicle>
    <vehicle arrivalPos="random" arrivalSpeed="0.00" depart="35811.64" departPos="random" departSpeed="0.00" id="h63246c1:1" type="passenger4">
        <route edges="--30892#22 -31066#8"/>
    </vehicle>
    <vehicle arrivalPos="random" arrivalSpeed="0.00" depart="35824.87" departPos="random" departSpeed="0.00" id="h21493c1:1" type="passenger2a">
        <route edges="--30892#26 --30892#25 --30892#24 --30892#23 --30892#22 --30892#21 --30892#20"/>
    </vehicle>
    <vehicle arrivalPos="random" arrivalSpeed="0.00" depart="35832.00" departPos="random" departSpeed="0.00" id="h51456c1:1" type="passenger2a">
        <route edges="-31340#0 -31340#1 --32208#1 --30740#0 --31214#0 --31340#0"/>
    </vehicle>
    <vehicle arrivalPos="random" arrivalSpeed="0.00" depart="35838.00" departPos="random" departSpeed="0.00" id="h26382c1:1" type="passenger2a">
        <route edges="--32208#0 -31214#2 --30562#0 --32332#0 --32984#1 -30970#0 -30970#1 -30970#2 --30832#0 -30892#26"/>
    </vehicle>
    <vehicle arrivalPos="random" arrivalSpeed="0.00" depart="35850.50" departPos="random" departSpeed="0.00" id="h10304c1:2" type="passenger2b">
        <route edges="-31340#0 -31340#1 -31340#2 -31340#3 --30562#2 --30562#1 --30562#0 --32332#0 --32984#1 -30970#0 -30970#1 -30970#2 --30832#0 -32558"/>
    </vehicle>
    <vehicle arrivalPos="random" arrivalSpeed="0.00" depart="35860.00" departPos="random" departSpeed="0.00" id="h5849c1:1" type="passenger1">
        <route edges="--31340#1 --31340#0"/>
    </vehicle>
    <vehicle arrivalPos="random" arrivalSpeed="0.00" depart="35860.51" departPos="random" departSpeed="0.00" id="randUni17221:1" type="passenger2a">
        <route edges="-31066#6 -31066#7 -31066#8"/>
    </vehicle>
    <vehicle arrivalPos="random" arrivalSpeed="0.00" depart="35860.64" departPos="random" departSpeed="0.00" id="h63239c1:1" type="passenger3">
        <route edges="--30892#22 --30892#21 --30892#20"/>
    </vehicle>
    <vehicle arrivalPos="random" arrivalSpeed="0.00" depart="35861.54" departPos="random" departSpeed="0.00" id="h22857c2:1" type="passenger2b">
        <route edges="--30892#20"/>
    </vehicle>
    <vehicle arrivalPos="random" arrivalSpeed="0.00" depart="35862.69" departPos="random" departSpeed="0.00" id="carIn21881:1" type="passenger2b">
        <route edges="-30892#20 -30892#21 -30892#22 -30892#23 -30892#24 -30892#25 -30892#26"/>
    </vehicle>
    <vehicle arrivalPos="random" arrivalSpeed="0.00" depart="35863.92" departPos="random" departSpeed="0.00" id="carIn17891:1" type="passenger1">
        <route edges="--30892#26 --30892#25 --30892#24 --30892#23 --30892#22 -31066#8"/>
    </vehicle>
    <vehicle arrivalPos="random" arrivalSpeed="0.00" depart="35879.69" departPos="random" departSpeed="0.00" id="carIn18115:1" type="passenger2b">
        <route edges="-30892#20 -30892#21 --31066#7 --31066#6 --31066#5 --31066#4 --31066#3"/>
    </vehicle>
    <vehicle arrivalPos="random" arrivalSpeed="0.00" depart="35890.82" departPos="random" departSpeed="0.00" id="h31451c1:1" type="passenger1">
        <route edges="--31066#8 --31066#7 --31066#6 --31066#5 --31066#4 -32918#0 -32918#1 -32918#2 --31186#1 --31698 --31340#2 --31340#1 --31340#0"/>
    </vehicle>
    <vehicle arrivalPos="random" arrivalSpeed="0.00" depart="35895.92" departPos="random" departSpeed="0.00" id="carIn33551:1" type="passenger1">
        <route edges="--30892#26 --30892#25 --30892#24 --30892#23 --30892#22 -31066#8"/>
    </vehicle>
    <vehicle arrivalPos="random" arrivalSpeed="0.00" depart="35898.72" departPos="random" departSpeed="0.00" id="h53120c1:1" type="passenger2a">
        <route edges="--30892#26 -32558"/>
    </vehicle>
    <vehicle arrivalPos="random" arrivalSpeed="0.00" depart="35902.31" departPos="random" departSpeed="0.00" id="h12671c1:1" type="passenger2b">
        <route edges="-30892#23 -30348#0 -30348#1 -30348#2 --32618#5 --32618#4 --32618#3 --32618#2 --30552"/>
    </vehicle>
    <vehicle arrivalPos="random" arrivalSpeed="0.00" depart="35903.00" departPos="random" departSpeed="0.00" id="carIn24278:1" type="passenger2a">
        <route edges="--30832#1 --30832#0 --30892#25 --30892#24 --30892#23 --30892#22 -31066#8"/>
    </vehicle>
    <vehicle arrivalPos="random" arrivalSpeed="0.00" depart="35906.00" departPos="random" departSpeed="0.00" id="h74993c1:1" type="passenger1">
        <route edges="-32984#4 -32874#2 --32332#0 --32984#1 -30970#0 -30970#1 -30970#2 --30832#0 -30892#26"/>
    </vehicle>
    <vehicle arrivalPos="random" arrivalSpeed="0.00" depart="35908.61" departPos="random" departSpeed="0.00" id="h43669c1:1" type="passenger2a">
        <route edges="-31340#0 -31340#1 -31340#2 -31340#3 -31340#4 --31066#0 -32914#1 --30348#5 --30348#4 --30348#3"/>
    </vehicle>
    <vehicle arrivalPos="random" arrivalSpeed="0.00" depart="35909.00" departPos="random" departSpeed="0.00" id="h39815c1:1" type="passenger1">
        <route edges="-30522 --32618#0 --31066#2 --31186#2 --31186#1 --31698 --31340#2 --31340#1 --31340#0"/>
    </vehicle>
    <vehicle arrivalPos="random" arrivalSpeed="0.00" depart="35910.92" departPos="random" departSpeed="0.00" id="carIn27762:1" type="passenger1">
        <route edges="--30892#26 --30892#25 --30892#24 --30892#23 --30892#22 --30892#21 --30892#20"/>
    </vehicle>
    <vehicle arrivalPos="random" arrivalSpeed="0.00" depart="35911.55" departPos="random" departSpeed="0.00" id="randUni19078:1" type="passenger2b">
        <route edges="--30892#22 -31066#8"/>
    </vehicle>
    <vehicle arrivalPos="random" arrivalSpeed="0.00" depart="35913.03" departPos="random" departSpeed="0.00" id="carIn9530:1" type="passenger2b">
        <route edges="--30892#26 -30832#0 -30832#1 -31814 -32984#0 -32984#1 -32332#0 -32332#1 -30562#1 -30562#2 --31340#3 --31340#2 --31340#1 --31340#0"/>
    </vehicle>
    <vehicle arrivalPos="random" arrivalSpeed="0.00" depart="35913.69" departPos="random" departSpeed="0.00" id="h33568c2:1" type="passenger5">
        <route edges="-30892#20 -30892#21 --31066#7 --31066#6 -30552 --32618#1 --32618#0 --31066#2 --31066#1 --31340#4 --31340#3 --31340#2 --31340#1 --31340#0"/>
    </vehicle>
    <vehicle arrivalPos="random" arrivalSpeed="0.00" depart="35913.69" departPos="random" departSpeed="0.00" id="carIn49302:1" type="passenger1">
        <route edges="-30892#20 -30892#21 --31066#7 --31066#6 -30552 --32618#1 --32618#0 --31066#2 --31066#1 --31340#4 --31340#3 --31340#2 --31340#1 --31340#0"/>
    </vehicle>
    <vehicle arrivalPos="random" arrivalSpeed="0.00" depart="35920.62" departPos="random" departSpeed="0.00" id="h46870c1:1" type="passenger1">
        <route edges="-31340#0 -31340#1 -31340#2 -31340#3 --30562#2 -30740#2 -32874#1 --32984#4 --32984#3 -32528#0 -31948#2 -30970#1 -30970#2 --30832#0 -32558"/>
    </vehicle>
    <vehicle arrivalPos="random" arrivalSpeed="0.00" depart="35924.47" departPos="random" departSpeed="0.00" id="h43123c1:3" type="passenger2a">
        <route edges="--30892#26 --30892#25 --30892#24 --30892#23 --30892#22 --30892#21 --30892#20"/>
    </vehicle>
    <vehicle arrivalPos="random" arrivalSpeed="0.00" depart="35926.67" departPos="random" departSpeed="0.00" id="carIn2700:1" type="passenger1">
        <route edges="-31340#0 -31340#1 --32208#1 --32208#0 -31214#2 --30562#0 --32332#0 --32984#1 -30970#0 -30970#1 -30970#2 --30832#0 -30892#26"/>
    </vehicle>
    <vehicle arrivalPos="random" arrivalSpeed="0.00" depart="35934.89" departPos="random" departSpeed="0.00" id="h5783c2:1" type="passenger2a">
        <route edges="-30892#20 -30892#21 -30892#22 -30892#23 -30892#24 -30892#25 -30892#26"/>
    </vehicle>
    <vehicle arrivalPos="random" arrivalSpeed="0.00" depart="35940.15" departPos="random" departSpeed="0.00" id="randUni20520:1" type="passenger2a">
        <route edges="-31340#0 -31340#1 -31340#2 -31340#3 --30562#2 --30562#1 -31214#3 --32984#4 --32984#3 -32528#0 -32528#1 -32528#2 -31826"/>
    </vehicle>
    <vehicle arrivalPos="random" arrivalSpeed="0.00" depart="35945.49" departPos="random" departSpeed="0.00" id="h73255c1:1" type="passenger1">
        <route edges="--30892#26 -30832#0 -30832#1 -31814 -32984#0 -32984#1 -32332#0 -32332#1 -30562#1 -30562#2 --31340#3 --31340#2 --31340#1 --31340#0"/>
    </vehicle>
    <vehicle arrivalPos="random" arrivalSpeed="0.00" depart="35946.19" departPos="random" departSpeed="0.00" id="carIn48452:1" type="passenger2a">
        <route edges="-31340#0 -31340#1 -31340#2 -31340#3 --30562#2 --30562#1 --30562#0 --32332#0 --32984#1 -30970#0 -30970#1 -30970#2 --30832#0 -32558"/>
    </vehicle>
    <vehicle arrivalPos="random" arrivalSpeed="0.00" depart="35952.00" departPos="random" departSpeed="0.00" id="h42738c1:1" type="passenger1">
        <route edges="-30740#1 -30740#2 --32874#0 -32914#3 -31066#0 -31066#1 -31066#2 -32618#0 -32618#1 --30552"/>
    </vehicle>
    <vehicle arrivalPos="random" arrivalSpeed="0.00" depart="35953.03" departPos="random" departSpeed="0.00" id="carIn19906:1" type="passenger1">
        <route edges="--32558 -30832#0 -30832#1 -31814 -32984#0 -32984#1 -32332#0 -32332#1 -30562#1 -30562#2 --31340#3 --31340#2 --31340#1 --31340#0"/>
    </vehicle>
    <vehicle arrivalPos="random" arrivalSpeed="0.00" depart="35962.00" departPos="random" departSpeed="0.00" id="h47976c1:1" type="passenger5">
        <route edges="-31066#7 -31066#8"/>
    </vehicle>
    <vehicle arrivalPos="random" arrivalSpeed="0.00" depart="35967.90" departPos="random" departSpeed="0.00" id="h17256c1:1" type="passenger2b">
        <route edges="-30892#20 -30892#21 -30892#22 -30892#23 -30892#24 -30892#25 -32558"/>
    </vehicle>
    <vehicle arrivalPos="random" arrivalSpeed="0.00" depart="35971.83" departPos="random" departSpeed="0.00" id="carIn24846:1" type="passenger5">
        <route edges="-30552 -32618#2 -32618#3 -32618#4 -32618#5 --30348#2 --30968#3 --30968#2 --30968#1 --30968#0 -30970#2 --30832#0 -32558"/>
    </vehicle>
    <vehicle arrivalPos="random" arrivalSpeed="0.00" depart="35975.86" departPos="random" departSpeed="0.00" id="h16627c2:1" type="passenger3">
        <route edges="-31340#0 -31340#1 -31340#2 -31698 -31186#1 -31186#2 -31066#2 -32618#0 -32618#1 --30552"/>
    </vehicle>
    <vehicle arrivalPos="random" arrivalSpeed="0.00" depart="35975.96" departPos="random" departSpeed="0.00" id="h25786c2:1" type="passenger1">
        <route edges="-30892#20 -30892#21 --31066#7 --31066#6 -30552 --32618#1 --32618#0 --31066#2 --31066#1 --31340#4 --31340#3 --31340#2 --31340#1 --31340#0"/>
    </vehicle>
    <vehicle arrivalPos="random" arrivalSpeed="0.00" depart="35981.66" departPos="random" departSpeed="0.00" id="h31639c1:1" type="passenger2b">
        <route edges="--32558 -30832#0 -30832#1 -31814 -32984#0 -32984#1 -32332#0 -32332#1 -30562#1 -30562#2 --31340#3 --31340#2 --31340#1 --31340#0"/>
    </vehicle>
    <vehicle arrivalPos="random" arrivalSpeed="0.00" depart="35986.99" departPos="random" departSpeed="0.00" id="h63442c1:1" type="passenger1">
        <route edges="--30892#26 -32558"/>
    </vehicle>
    <vehicle arrivalPos="random" arrivalSpeed="0.00" depart="35987.03" departPos="random" departSpeed="0.00" id="carIn49463:1" type="passenger2a">
        <route edges="--30892#26 -30832#0 -30832#1 -31814 -32984#0 -32984#1 -32332#0 -32332#1 -30562#1 --30740#1 -32208#1"/>
    </vehicle>
    <vehicle arrivalPos="random" arrivalSpeed="0.00" depart="36003.77" departPos="random" departSpeed="0.00" id="randUni9785:1" type="passenger1">
        <route edges="-30892#20 -30892#21 --31066#7 --31066#6 -30552 --32618#1 --32618#0 --31066#2 --31066#1 --31340#4 --31340#3 --31340#2 --31340#1 --31340#0"/>
    </vehicle>
    <vehicle arrivalPos="random" arrivalSpeed="0.00" depart="36005.32" departPos="random" departSpeed="0.00" id="randUni1540:1" type="passenger1">
        <route edges="-31340#0 -31340#1 -31340#2 -31698 -31186#1 -31186#2 -31066#2 -32618#0 -32618#1 --30552 -31066#6 -31066#7 --30892#21 --30892#20"/>
    </vehicle>
    <vehicle arrivalPos="random" arrivalSpeed="0.00" depart="36010.00" departPos="random" departSpeed="0.00" id="h14164c1:1" type="passenger2a">
        <route edges="--31340#3 -31698 -31186#1 -31186#2 -31066#2 -32618#0 -32618#1 --30552"/>
    </vehicle>
    <vehicle arrivalPos="random" arrivalSpeed="0.00" depart="36010.00" departPos="random" departSpeed="0.00" id="nrh00h14164c1:1" type="passenger2a">
        <route edges="--31340#3 -31698 -31186#1 --32918#2 --32540 -32618#0 -32618#1 --30552"/>
    </vehicle>
    <vehicle arrivalPos="random" arrivalSpeed="0.00" depart="36010.32" departPos="random" departSpeed="0.00" id="randUni15211:1" type="passenger2b">
        <route edges="-30892#20 -30892#21 --31066#7 --31066#6 -30552 --32618#1 --32618#0 --31066#2 --31186#2 --31186#1 --31698 --31340#2 --31340#1 --31340#0"/>
    </vehicle>
    <vehicle arrivalPos="random" arrivalSpeed="0.00" depart="36011.82" departPos="random" departSpeed="0.00" id="h38382c1:1" type="passenger2a">
        <route edges="-31340#0 -31340#1 -31340#2 -31340#3 --30562#2 --30562#1 --30562#0 --32332#0 --32984#1 -30970#0 -30970#1 -30970#2 --30832#0 -32558"/>
    </vehicle>
    <vehicle arrivalPos="random" arrivalSpeed="0.00" depart="36011.86" departPos="random" departSpeed="0.00" id="h29032c1:2" type="passenger2b">
        <route edges="-30892#20 -30892#21 --31066#7 --32438"/>
    </vehicle>
    <vehicle arrivalPos="random" arrivalSpeed="0.00" depart="36012.69" departPos="random" departSpeed="0.00" id="carIn33874:1" type="passenger2b">
        <route edges="-30892#20 -30892#21 --31066#7 --31066#6 -30552 --32618#1 --32618#0 --31066#2 --31066#1 --31340#4 --31340#3 --31340#2 --31340#1 --31340#0"/>
    </vehicle>
    <vehicle arrivalPos="random" arrivalSpeed="0.00" depart="36019.50" departPos="random" departSpeed="0.00" id="h67666c1:1" type="passenger2b">
        <route edges="-30892#20"/>
    </vehicle>
    <vehicle arrivalPos="random" arrivalSpeed="0.00" depart="36020.95" departPos="random" departSpeed="0.00" id="carIn5555:1" type="passenger2b">
        <route edges="--32558 -30832#0 -30832#1 -31814 -32984#0 -32984#1 -32332#0 --32874#2 --32874#1 --32874#0 -32914#3 -31066#0 --31340#4 --31340#3 --31340#2 --31340#1 --31340#0"/>
    </vehicle>
    <vehicle arrivalPos="random" arrivalSpeed="0.00" depart="36021.67" departPos="random" departSpeed="0.00" id="h28696c1:1" type="passenger1">
        <route edges="-30892#20 -30892#21 -30892#22 -30892#23 -30892#24 -30892#25 -30892#26"/>
    </vehicle>
    <vehicle arrivalPos="random" arrivalSpeed="0.00" depart="36023.97" departPos="random" departSpeed="0.00" id="carIn4029:1" type="passenger2a">
        <route edges="--30892#26 -32558"/>
    </vehicle>
    <vehicle arrivalPos="random" arrivalSpeed="0.00" depart="36024.92" departPos="random" departSpeed="0.00" id="carIn38298:1" type="passenger1">
        <route edges="--30892#26 --30892#25 --30892#24 --30892#23 --30892#22 -31066#8"/>
    </vehicle>
    <vehicle arrivalPos="random" arrivalSpeed="0.00" depart="36026.09" departPos="random" departSpeed="0.00" id="h29615c1:1" type="passenger2a">
        <route edges="-31340#0 -31340#1 -31340#2 -31340#3 --30562#2 --30562#1 --30562#0 --32332#0 --32984#1 -30970#0 -30970#1 -30970#2 --30832#0 -32558"/>
    </vehicle>
    <vehicle arrivalPos="random" arrivalSpeed="0.00" depart="36045.80" departPos="random" departSpeed="0.00" id="h58312c1:1" type="passenger2b">
        <route edges="-31340#0 -31340#1 -31340#2 -31698 -31186#1 -31186#2 -31066#2 -31066#3 -31066#4 -30508#0 -32920"/>
    </vehicle>
    <vehicle arrivalPos="random" arrivalSpeed="0.00" depart="36052.00" departPos="random" departSpeed="0.00" id="h37160c1:1" type="passenger1">
        <route edges="-30346#1 -31948#1 -32528#1 -32528#2 -32528#3 -30968#2 --30346#0 --30892#24 --30892#23 --30892#22 -31066#8"/>
    </vehicle>
    <vehicle arrivalPos="random" arrivalSpeed="0.00" depart="36054.00" departPos="random" departSpeed="0.00" id="h1203c1:1" type="passenger2a">
        <route edges="--30346#1 -30968#3 --30348#1 --30348#0 --30892#23 --30892#22 --30892#21 --30892#20"/>
    </vehicle>
    <vehicle arrivalPos="random" arrivalSpeed="0.00" depart="36056.34" departPos="random" departSpeed="0.00" id="h21510c1:1" type="passenger3">
        <route edges="--30892#26 --30892#25 -30346#0 -30968#3 -30348#2 --32618#5 --32618#4 -32794#0 -32438 --31066#6 --31066#5 --31066#4 -32918#0 -32918#1 -32918#2 --31186#1 --31698 --31340#2 --31340#1 --31340#0"/>
    </vehicle>
    <vehicle arrivalPos="random" arrivalSpeed="0.00" depart="36058.44" departPos="random" departSpeed="0.00" id="carIn41199:1" type="passenger1">
        <route edges="-30892#20 -30892#21 -30892#22 -30892#23 -30892#24 -30892#25 -32558"/>
    </vehicle>
    <vehicle arrivalPos="random" arrivalSpeed="0.00" depart="36060.67" departPos="random" departSpeed="0.00" id="carIn24320:1" type="passenger1">
        <route edges="-31340#0 -31340#1 -31340#2 -31340#3 --30562#2 --30562#1 --30562#0 --32332#0 --32984#1 -30970#0 -30970#1 -30970#2 --30832#0 -32558"/>
    </vehicle>
    <vehicle arrivalPos="random" arrivalSpeed="0.00" depart="36066.00" departPos="random" departSpeed="0.00" id="h12877c1:1" type="passenger1">
        <route edges="--31214#0 -31340#1 --32208#1 --32208#0 -31214#2 --30562#0 --32332#0 --32984#1 -30970#0 --31948#2 -32528#1 -32528#2 -32528#3 -30968#2 --30346#0 --30892#24 --30892#23 --30892#22 -31066#8"/>
    </vehicle>
    <vehicle arrivalPos="random" arrivalSpeed="0.00" depart="36067.92" departPos="random" departSpeed="0.00" id="carIn26499:1" type="passenger4">
        <route edges="--30892#26 --30892#25 --30892#24 --30892#23 --30892#22 -31066#8"/>
    </vehicle>
    <vehicle arrivalPos="random" arrivalSpeed="0.00" depart="36068.98" departPos="random" departSpeed="0.00" id="h41614c2:1" type="passenger2a">
        <route edges="--30892#26 --30892#25 --30892#24 --30892#23 --30892#22 --30892#21 --30892#20"/>
    </vehicle>
    <vehicle arrivalPos="random" arrivalSpeed="0.00" depart="36070.55" departPos="random" departSpeed="0.00" id="h63170c2:1" type="passenger2a">
        <route edges="--30892#22 --30892#21 --30892#20"/>
    </vehicle>
    <vehicle arrivalPos="random" arrivalSpeed="0.00" depart="36071.67" departPos="random" departSpeed="0.00" id="carIn37886:1" type="passenger1">
        <route edges="-31340#0 -31340#1 -31340#2 -31698 -31186#1 --32918#2 --32540 -32618#0 -32618#1 --30552 -31066#6 -31066#7 -30892#22"/>
    </vehicle>
    <vehicle arrivalPos="random" arrivalSpeed="0.00" depart="36072.96" departPos="random" departSpeed="0.00" id="carIn24593:1" type="passenger1">
        <route edges="--30892#26 --30892#25 -30346#0 -30968#3 --30348#1 --30348#0 --30892#23 --30892#22 --30892#21 --30892#20"/>
    </vehicle>
    <vehicle arrivalPos="random" arrivalSpeed="0.00" depart="36075.29" departPos="random" departSpeed="0.00" id="h31531c1:1" type="passenger3">
        <route edges="-30892#23 -30348#0 -30348#1 -30348#2 --32618#5 --32618#4 --32618#3 --32618#2 --30552"/>
    </vehicle>
    <vehicle arrivalPos="random" arrivalSpeed="0.00" depart="36085.77" departPos="random" departSpeed="0.00" id="carIn1687:1" type="passenger2b">
        <route edges="-30892#20 -30892#21 -30892#22 -30892#23 -30892#24 -30892#25 -32558"/>
    </vehicle>
    <vehicle arrivalPos="random" arrivalSpeed="0.00" depart="36090.80" departPos="random" departSpeed="0.00" id="randUni16130:1" type="passenger3">
        <route edges="-31340#0 -31340#1 -31340#2 -31340#3 --30562#2 --30562#1 -31214#3 --32984#4 --32984#3 -32528#0 --31948#1 --30346#1 -30968#3 --30348#1"/>
    </vehicle>
    <vehicle arrivalPos="random" arrivalSpeed="0.00" depart="36090.96" departPos="random" departSpeed="0.00" id="carIn42936:1" type="passenger1">
        <route edges="--30892#26 --30892#25 -30346#0 -30968#3 --30348#1 --30348#0 --30892#23 --30892#22 --30892#21 --30892#20"/>
    </vehicle>
    <vehicle arrivalPos="random" arrivalSpeed="0.00" depart="36100.54" departPos="random" departSpeed="0.00" id="h7706c1:1" type="passenger2a">
        <route edges="--32558 -30832#0 -30832#1 -31814 -32984#0 -32984#1 -32332#0 -32332#1 -30562#1 -30562#2 --31340#3 --31340#2 --31340#1 --31340#0"/>
    </vehicle>
    <vehicle arrivalPos="random" arrivalSpeed="0.00" depart="36103.71" departPos="random" departSpeed="0.00" id="h43564c1:1" type="passenger1">
        <route edges="-30892#20 -30892#21 --31066#7 --31066#6 -30552 --32618#1 --32618#0 --31066#2 --31066#1 --31340#4 --31340#3 --31340#2 --31340#1 --31340#0"/>
    </vehicle>
    <vehicle arrivalPos="random" arrivalSpeed="0.00" depart="36110.18" departPos="random" departSpeed="0.00" id="h64362c1:1" type="passenger2a">
        <route edges="-30892#20 -30892#21 --31066#7 --31066#6 -30552 --32618#1 --32618#0 --31066#2 --31066#1 --31340#4 --31340#3 --31340#2 --31340#1 --31340#0"/>
    </vehicle>
    <vehicle arrivalPos="random" arrivalSpeed="0.00" depart="36112.69" departPos="random" departSpeed="0.00" id="carIn6802:1" type="passenger2b">
        <route edges="-30892#20 -30892#21 -30892#22 -30892#23 -30892#24 -30892#25 -32558"/>
    </vehicle>
    <vehicle arrivalPos="random" arrivalSpeed="0.00" depart="36114.96" departPos="random" departSpeed="0.00" id="carIn43823:1" type="passenger1">
        <route edges="--30892#26 --30892#25 -30346#0 -30968#3 --30348#1 --30348#0 --30892#23 --30892#22 --30892#21 --30892#20"/>
    </vehicle>
    <vehicle arrivalPos="random" arrivalSpeed="0.00" depart="36117.00" departPos="random" departSpeed="0.00" id="h34860c1:1" type="passenger3">
        <route edges="-30552 -32618#2 -32618#3 -32618#4 -32618#5 -30348#3 -31948#0 -31948#1 -31948#2 -30970#1 -30970#2 --30832#0 -32558"/>
    </vehicle>
    <vehicle arrivalPos="random" arrivalSpeed="0.00" depart="36118.24" departPos="random" departSpeed="0.00" id="h61089c2:1" type="passenger2a">
        <route edges="--32558 -30892#26"/>
    </vehicle>
    <vehicle arrivalPos="random" arrivalSpeed="0.00" depart="36120.92" departPos="random" departSpeed="0.00" id="carIn10287:1" type="passenger2a">
        <route edges="--30892#26 --30892#25 --30892#24 --30892#23 --30892#22 --30892#21 --30892#20"/>
    </vehicle>
    <vehicle arrivalPos="random" arrivalSpeed="0.00" depart="36125.67" departPos="random" departSpeed="0.00" id="carIn21397:1" type="passenger1">
        <route edges="-31340#0 -31340#1 -31340#2 -31698 -31186#1 -31186#2 -31066#2 -32618#0 -32618#1 --30552"/>
    </vehicle>
    <vehicle arrivalPos="random" arrivalSpeed="0.00" depart="36127.00" departPos="random" departSpeed="0.00" id="h34306c2:1" type="passenger1">
        <route edges="--32874#2 --31214#3 -30562#1 -30562#2 --31340#3 --31340#2 --31340#1 --31340#0"/>
    </vehicle>
    <vehicle arrivalPos="random" arrivalSpeed="0.00" depart="36127.55" departPos="random" departSpeed="0.00" id="h63201c1:1" type="passenger2a">
        <route edges="-30892#23 -30348#0 -30348#1 -30348#2 -30348#3 -30348#4 -32560 -32984#4 --32874#1 --32874#0 -32914#3 -31066#0 --31340#4 --31340#3 --31340#2 --31340#1 --31340#0"/>
    </vehicle>
    <vehicle arrivalPos="random" arrivalSpeed="0.00" depart="36127.61" departPos="random" departSpeed="0.00" id="carIn38803:1" type="passenger3">
        <route edges="--30892#26 -32558"/>
    </vehicle>
    <vehicle arrivalPos="random" arrivalSpeed="0.00" depart="36127.95" departPos="random" departSpeed="0.00" id="h61643c1:1" type="passenger2a">
        <route edges="--30892#26 --30892#25 --30892#24 --30892#23 --30892#22 --30892#21 --30892#20"/>
    </vehicle>
    <vehicle arrivalPos="random" arrivalSpeed="0.00" depart="36128.58" departPos="random" departSpeed="0.00" id="carIn42215:1" type="passenger3">
        <route edges="--30892#26 -32558"/>
    </vehicle>
    <vehicle arrivalPos="random" arrivalSpeed="0.00" depart="36131.00" departPos="random" departSpeed="0.00" id="h10948c1:1" type="passenger1">
        <route edges="--31066#7 --31066#6"/>
    </vehicle>
    <vehicle arrivalPos="random" arrivalSpeed="0.00" depart="36131.64" departPos="random" departSpeed="0.00" id="h63266c1:1" type="passenger2a">
        <route edges="--30892#22 --31066#7 --31066#6 -30552 --32618#1 --32618#0 --31066#2 --31186#2 --31186#1 --31698 --31340#2 --31340#1 --31340#0"/>
    </vehicle>
    <vehicle arrivalPos="random" arrivalSpeed="0.00" depart="36132.03" departPos="random" departSpeed="0.00" id="carIn29654:1" type="passenger1">
        <route edges="--30892#26 --30892#25 -30346#0 --30968#2 --32528#3 --32528#2 --32528#1 --32528#0 --32984#2 -32332#0 -32332#1 -30562#1 -30562#2 --31340#3 --31340#2 --31340#1 --31340#0"/>
    </vehicle>
    <vehicle arrivalPos="random" arrivalSpeed="0.00" depart="36134.06" departPos="random" departSpeed="0.00" id="h19465c1:1" type="passenger3">
        <route edges="-30892#20 -30892#21 --31066#7 --31066#6 -30552 --32618#1 --32618#0 --31066#2 --31066#1 --31340#4 --31340#3 --31340#2 --31340#1 --31340#0"/>
    </vehicle>