<?xml version="1.0" encoding="UTF-8"?>

<!-- generated on jeu. 31 janv. 2019 14:53:07 CET by Eclipse SUMO netedit Version 1.0.1
<configuration xmlns:xsi="http://www.w3.org/2001/XMLSchema-instance" xsi:noNamespaceSchemaLocation="http://sumo.dlr.de/xsd/netconvertConfiguration.xsd">

    <input>
        <sumo-net-file value="/home/joseph/Projects/F2MD/SumoExtractor/Extract%20Lust/LuSTScenario/lust.net.xml"/>
    </input>

    <output>
        <output-file value="/home/joseph/Projects/F2MD/SumoExtractor/Extract%20Lust/LuSTMicroScenario/lust.net.xml"/>
    </output>

    <processing>
        <offset.disable-normalization value="true"/>
        <lefthand value="false"/>
    </processing>

    <junctions>
        <no-turnarounds value="true"/>
        <junctions.corner-detail value="0"/>
        <junctions.limit-turn-speed value="-1"/>
        <rectangular-lane-cut value="false"/>
    </junctions>

    <pedestrian>
        <walkingareas value="false"/>
    </pedestrian>

</configuration>
-->

<net version="1.0" xmlns:xsi="http://www.w3.org/2001/XMLSchema-instance" xsi:noNamespaceSchemaLocation="http://sumo.dlr.de/xsd/net_file.xsd">

    <location netOffset="-285448.66,-5492398.13" convBoundary="6035.21,4144.26,7400.06,5480.06" origBoundary="6.030969,49.549099,6.216758,49.652578" projParameter="+proj=utm +zone=32 +ellps=WGS84 +datum=WGS84 +units=m +no_defs"/>

    <edge id=":-1010_0" function="internal">
        <lane id=":-1010_0_0" index="0" speed="13.89" length="13.98" shape="7084.14,4834.97 7074.89,4845.45"/>
    </edge>
    <edge id=":-1010_1" function="internal">
        <lane id=":-1010_1_0" index="0" speed="13.89" length="5.63" shape="7084.14,4834.97 7081.18,4837.37 7079.43,4837.89"/>
    </edge>
    <edge id=":-1010_6" function="internal">
        <lane id=":-1010_6_0" index="0" speed="13.89" length="8.32" shape="7079.43,4837.89 7078.15,4838.27 7075.04,4837.68 7071.84,4835.59"/>
    </edge>
    <edge id=":-1010_2" function="internal">
        <lane id=":-1010_2_0" index="0" speed="13.89" length="8.90" shape="7073.96,4833.18 7075.99,4834.52 7077.97,4834.89 7079.91,4834.32 7081.79,4832.79"/>
    </edge>
    <edge id=":-1010_3" function="internal">
        <lane id=":-1010_3_0" index="0" speed="13.89" length="13.96" shape="7073.96,4833.18 7076.44,4836.08 7077.42,4839.09 7076.91,4842.21 7074.89,4845.45"/>
    </edge>
    <edge id=":-1010_4" function="internal">
        <lane id=":-1010_4_0" index="0" speed="13.89" length="8.88" shape="7072.44,4843.40 7073.72,4841.33 7074.05,4839.35 7073.42,4837.43 7071.84,4835.59"/>
    </edge>
    <edge id=":-1010_5" function="internal">
        <lane id=":-1010_5_0" index="0" speed="13.89" length="14.14" shape="7072.44,4843.40 7081.79,4832.79"/>
    </edge>
    <edge id=":-10158_0" function="internal">
        <lane id=":-10158_0_0" index="0" speed="13.89" length="14.43" shape="6672.23,4906.02 6666.39,4892.82"/>
    </edge>
    <edge id=":-10158_1" function="internal">
        <lane id=":-10158_1_0" index="0" speed="13.89" length="5.96" shape="6672.23,4906.02 6671.16,4902.26 6671.41,4900.22"/>
    </edge>
    <edge id=":-10158_6" function="internal">
        <lane id=":-10158_6_0" index="0" speed="13.89" length="8.28" shape="6671.41,4900.22 6671.56,4899.07 6673.42,4896.46 6676.76,4894.42"/>
    </edge>
    <edge id=":-10158_2" function="internal">
        <lane id=":-10158_2_0" index="0" speed="13.89" length="9.03" shape="6678.02,4897.36 6675.91,4898.65 6674.72,4900.31 6674.47,4902.33 6675.15,4904.71"/>
    </edge>
    <edge id=":-10158_3" function="internal">
        <lane id=":-10158_3_0" index="0" speed="13.89" length="14.22" shape="6678.02,4897.36 6674.26,4898.38 6671.06,4897.97 6668.44,4896.11 6666.39,4892.82"/>
    </edge>
    <edge id=":-10158_4" function="internal">
        <lane id=":-10158_4_0" index="0" speed="13.89" length="9.08" shape="6669.32,4891.53 6670.63,4893.63 6672.30,4894.81 6674.35,4895.07 6676.76,4894.42"/>
    </edge>
    <edge id=":-10158_5" function="internal">
        <lane id=":-10158_5_0" index="0" speed="13.89" length="14.41" shape="6669.32,4891.53 6675.15,4904.71"/>
    </edge>
    <edge id=":-104_0" function="internal">
        <lane id=":-104_0_0" index="0" speed="13.89" length="15.41" shape="7001.93,4587.91 6989.31,4596.94"/>
        <lane id=":-104_0_1" index="1" speed="13.89" length="15.41" shape="6999.99,4585.37 6987.53,4594.27"/>
    </edge>
    <edge id=":-104_2" function="internal">
        <lane id=":-104_2_0" index="0" speed="13.89" length="4.68" shape="6999.99,4585.37 6997.02,4586.64 6995.57,4586.56"/>
    </edge>
    <edge id=":-104_8" function="internal">
        <lane id=":-104_8_0" index="0" speed="13.89" length="12.75" shape="6995.57,4586.56 6993.38,4586.44 6989.04,4584.78 6984.02,4581.65"/>
    </edge>
    <edge id=":-104_3" function="internal">
        <lane id=":-104_3_0" index="0" speed="13.89" length="11.06" shape="6985.89,4579.05 6988.81,4580.77 6991.49,4581.55 6993.92,4581.39 6996.10,4580.28"/>
    </edge>
    <edge id=":-104_4" function="internal">
        <lane id=":-104_4_0" index="0" speed="13.89" length="19.00" shape="6985.89,4579.05 6990.21,4583.04 6991.93,4586.91 6991.03,4590.65 6987.53,4594.27"/>
    </edge>
    <edge id=":-104_5" function="internal">
        <lane id=":-104_5_0" index="0" speed="13.89" length="9.08" shape="6983.97,4588.95 6985.86,4587.09 6986.49,4585.26 6985.88,4583.45 6984.02,4581.65"/>
    </edge>
    <edge id=":-104_6" function="internal">
        <lane id=":-104_6_0" index="0" speed="13.89" length="15.01" shape="6983.97,4588.95 6996.10,4580.28"/>
        <lane id=":-104_6_1" index="1" speed="13.89" length="15.01" shape="6985.75,4591.61 6998.04,4582.82"/>
    </edge>
    <edge id=":-10960_0" function="internal">
        <lane id=":-10960_0_0" index="0" speed="13.89" length="14.17" shape="7199.16,5094.74 7187.51,5086.67"/>
    </edge>
    <edge id=":-10960_1" function="internal">
        <lane id=":-10960_1_0" index="0" speed="13.89" length="5.74" shape="7199.16,5094.74 7196.39,5092.08 7195.62,5090.34"/>
    </edge>
    <edge id=":-10960_6" function="internal">
        <lane id=":-10960_6_0" index="0" speed="13.89" length="8.34" shape="7195.62,5090.34 7195.10,5089.16 7195.32,5085.98 7197.02,5082.52"/>
    </edge>
    <edge id=":-10960_2" function="internal">
        <lane id=":-10960_2_0" index="0" speed="13.89" length="8.99" shape="7199.66,5084.33 7198.57,5086.54 7198.43,5088.58 7199.25,5090.44 7201.02,5092.13"/>
    </edge>
    <edge id=":-10960_3" function="internal">
        <lane id=":-10960_3_0" index="0" speed="13.89" length="14.09" shape="7199.66,5084.33 7197.06,5087.17 7194.17,5088.51 7190.98,5088.35 7187.51,5086.67"/>
    </edge>
    <edge id=":-10960_4" function="internal">
        <lane id=":-10960_4_0" index="0" speed="13.89" length="8.97" shape="7189.28,5084.02 7191.50,5085.08 7193.52,5085.18 7195.37,5084.33 7197.02,5082.52"/>
    </edge>
    <edge id=":-10960_5" function="internal">
        <lane id=":-10960_5_0" index="0" speed="13.89" length="14.27" shape="7189.28,5084.02 7201.02,5092.13"/>
    </edge>
    <edge id=":-11116_0" function="internal">
        <lane id=":-11116_0_0" index="0" speed="13.89" length="14.55" shape="7068.03,4568.77 7053.94,4572.39"/>
        <lane id=":-11116_0_1" index="1" speed="13.89" length="14.55" shape="7067.23,4565.67 7053.14,4569.29"/>
    </edge>
    <edge id=":-11116_2" function="internal">
        <lane id=":-11116_2_0" index="0" speed="13.89" length="4.84" shape="7067.23,4565.67 7063.71,4565.79 7062.53,4565.23"/>
    </edge>
    <edge id=":-11116_8" function="internal">
        <lane id=":-11116_8_0" index="0" speed="13.89" length="12.13" shape="7062.53,4565.23 7060.47,4564.26 7057.52,4561.08 7054.86,4556.25"/>
    </edge>
    <edge id=":-11116_3" function="internal">
        <lane id=":-11116_3_0" index="0" speed="13.89" length="9.94" shape="7057.88,4554.90 7059.32,4557.40 7061.10,4559.00 7063.21,4559.69 7065.64,4559.47"/>
    </edge>
    <edge id=":-11116_4" function="internal">
        <lane id=":-11116_4_0" index="0" speed="13.89" length="17.87" shape="7057.88,4554.90 7059.51,4560.24 7059.27,4564.42 7057.15,4567.44 7053.14,4569.29"/>
    </edge>
    <edge id=":-11116_5" function="internal">
        <lane id=":-11116_5_0" index="0" speed="13.89" length="9.05" shape="7051.55,4563.10 7053.90,4562.12 7055.23,4560.65 7055.55,4558.69 7054.86,4556.25"/>
    </edge>
    <edge id=":-11116_6" function="internal">
        <lane id=":-11116_6_0" index="0" speed="13.89" length="14.55" shape="7051.55,4563.10 7065.64,4559.47"/>
        <lane id=":-11116_6_1" index="1" speed="13.89" length="14.55" shape="7052.35,4566.20 7066.44,4562.57"/>
    </edge>
    <edge id=":-11352_0" function="internal">
        <lane id=":-11352_0_0" index="0" speed="13.89" length="7.91" shape="6237.39,4603.61 6238.88,4603.77 6240.05,4604.78 6240.90,4606.67 6241.42,4609.41"/>
    </edge>
    <edge id=":-12084_0" function="internal">
        <lane id=":-12084_0_0" index="0" speed="13.89" length="20.92" shape="6223.32,5117.24 6219.93,5096.68"/>
        <lane id=":-12084_0_1" index="1" speed="13.89" length="20.92" shape="6226.48,5116.77 6223.09,5096.13"/>
        <lane id=":-12084_0_2" index="2" speed="13.89" length="20.92" shape="6229.65,5116.30 6226.24,5095.58"/>
    </edge>
    <edge id=":-12084_3" function="internal">
        <lane id=":-12084_3_0" index="0" speed="13.89" length="5.18" shape="6229.65,5116.30 6230.02,5111.95 6230.44,5111.25"/>
    </edge>
    <edge id=":-12084_11" function="internal">
        <lane id=":-12084_11_0" index="0" speed="13.89" length="17.51" shape="6230.44,5111.25 6232.47,5107.82 6237.00,5103.93 6243.61,5100.27"/>
    </edge>
    <edge id=":-12084_4" function="internal">
        <lane id=":-12084_4_0" index="0" speed="13.89" length="12.16" shape="6246.30,5106.08 6242.88,5108.01 6240.55,5110.12 6239.31,5112.41 6239.15,5114.89"/>
    </edge>
    <edge id=":-12084_5" function="internal">
        <lane id=":-12084_5_0" index="0" speed="13.89" length="26.58" shape="6244.95,5103.18 6237.95,5105.24 6231.26,5104.93 6225.95,5101.98 6223.09,5096.13"/>
    </edge>
    <edge id=":-12084_6" function="internal">
        <lane id=":-12084_6_0" index="0" speed="13.89" length="24.66" shape="6244.95,5103.18 6237.75,5105.50 6232.23,5105.01 6228.39,5101.70 6226.24,5095.58"/>
    </edge>
    <edge id=":-12084_7" function="internal">
        <lane id=":-12084_7_0" index="0" speed="13.89" length="9.08" shape="6235.70,5093.94 6236.50,5096.40 6237.86,5097.79 6239.78,5098.11 6242.26,5097.37"/>
    </edge>
    <edge id=":-12084_8" function="internal">
        <lane id=":-12084_8_0" index="0" speed="13.89" length="21.16" shape="6235.70,5093.94 6239.15,5114.89"/>
        <lane id=":-12084_8_1" index="1" speed="13.89" length="21.16" shape="6232.54,5094.48 6235.98,5115.36"/>
        <lane id=":-12084_8_2" index="2" speed="13.89" length="21.16" shape="6229.39,5095.03 6232.81,5115.83"/>
    </edge>
    <edge id=":-12582_0" function="internal">
        <lane id=":-12582_0_0" index="0" speed="13.89" length="14.54" shape="6197.85,4964.16 6195.72,4949.76"/>
        <lane id=":-12582_0_1" index="1" speed="13.89" length="14.54" shape="6201.02,4963.69 6198.89,4949.30"/>
        <lane id=":-12582_0_2" index="2" speed="13.89" length="14.54" shape="6204.18,4963.21 6202.06,4948.85"/>
    </edge>
    <edge id=":-12582_3" function="internal">
        <lane id=":-12582_3_0" index="0" speed="13.89" length="5.31" shape="6204.18,4963.21 6204.51,4958.79 6205.04,4958.10"/>
    </edge>
    <edge id=":-12582_11" function="internal">
        <lane id=":-12582_11_0" index="0" speed="13.89" length="15.19" shape="6205.04,4958.10 6207.00,4955.56 6211.67,4953.51 6218.50,4952.66"/>
    </edge>
    <edge id=":-12582_4" function="internal">
        <lane id=":-12582_4_0" index="0" speed="13.89" length="9.04" shape="6218.60,4955.85 6216.12,4956.30 6214.47,4957.43 6213.66,4959.26 6213.67,4961.78"/>
    </edge>
    <edge id=":-12582_5" function="internal">
        <lane id=":-12582_5_0" index="0" speed="13.89" length="22.25" shape="6218.60,4955.85 6210.37,4955.68 6204.34,4954.53 6200.51,4952.40 6198.89,4949.30"/>
    </edge>
    <edge id=":-12582_6" function="internal">
        <lane id=":-12582_6_0" index="0" speed="13.89" length="19.53" shape="6218.60,4955.85 6211.77,4955.61 6206.74,4954.36 6203.50,4952.11 6202.06,4948.85"/>
    </edge>
    <edge id=":-12582_7" function="internal">
        <lane id=":-12582_7_0" index="0" speed="13.89" length="9.64" shape="6211.56,4947.48 6212.29,4949.82 6213.68,4951.46 6215.75,4952.41 6218.50,4952.66"/>
    </edge>
    <edge id=":-12582_8" function="internal">
        <lane id=":-12582_8_0" index="0" speed="13.89" length="14.47" shape="6211.56,4947.48 6213.67,4961.78"/>
        <lane id=":-12582_8_1" index="1" speed="13.89" length="14.47" shape="6208.39,4947.94 6210.51,4962.26"/>
        <lane id=":-12582_8_2" index="2" speed="13.89" length="14.47" shape="6205.23,4948.39 6207.34,4962.73"/>
    </edge>
    <edge id=":-12878_0" function="internal">
        <lane id=":-12878_0_0" index="0" speed="13.89" length="9.07" shape="6945.74,4862.86 6943.55,4861.49 6941.61,4861.29 6939.92,4862.27 6938.49,4864.42"/>
    </edge>
    <edge id=":-12878_1" function="internal">
        <lane id=":-12878_1_0" index="0" speed="13.89" length="17.56" shape="6945.74,4862.86 6941.73,4859.46 6939.04,4857.08 6936.44,4854.58 6932.74,4850.85"/>
        <lane id=":-12878_1_1" index="1" speed="13.89" length="17.56" shape="6947.81,4860.42 6943.87,4857.07 6941.21,4854.73 6938.66,4852.28 6935.02,4848.61"/>
    </edge>
    <edge id=":-12878_3" function="internal">
        <lane id=":-12878_3_0" index="0" speed="13.89" length="6.21" shape="6947.81,4860.42 6944.77,4856.83 6944.37,4855.38"/>
    </edge>
    <edge id=":-12878_14" function="internal">
        <lane id=":-12878_14_0" index="0" speed="13.89" length="12.71" shape="6944.37,4855.38 6943.65,4852.82 6944.46,4848.40 6947.18,4843.56"/>
    </edge>
    <edge id=":-12878_4" function="internal">
        <lane id=":-12878_4_0" index="0" speed="13.89" length="11.56" shape="6949.77,4845.44 6948.51,4847.99 6948.45,4850.51 6949.59,4853.03 6951.94,4855.54"/>
    </edge>
    <edge id=":-12878_5" function="internal">
        <lane id=":-12878_5_0" index="0" speed="13.89" length="22.09" shape="6949.77,4845.44 6947.06,4849.48 6943.83,4854.75 6940.74,4860.12 6938.49,4864.42"/>
    </edge>
    <edge id=":-12878_6" function="internal">
        <lane id=":-12878_6_0" index="0" speed="13.89" length="17.81" shape="6949.77,4845.44 6945.99,4849.55 6942.28,4851.44 6938.62,4851.13 6935.02,4848.61"/>
    </edge>
    <edge id=":-12878_7" function="internal">
        <lane id=":-12878_7_0" index="0" speed="13.89" length="9.05" shape="6939.58,4844.12 6941.61,4845.65 6943.55,4846.07 6945.41,4845.37 6947.18,4843.56"/>
    </edge>
    <edge id=":-12878_8" function="internal">
        <lane id=":-12878_8_0" index="0" speed="13.89" length="16.98" shape="6939.58,4844.12 6943.10,4847.66 6945.57,4850.03 6948.13,4852.30 6951.94,4855.54"/>
        <lane id=":-12878_8_1" index="1" speed="13.89" length="16.98" shape="6937.30,4846.36 6940.88,4849.97 6943.39,4852.38 6946.00,4854.69 6949.88,4857.98"/>
    </edge>
    <edge id=":-12878_10" function="internal">
        <lane id=":-12878_10_0" index="0" speed="13.89" length="6.07" shape="6937.30,4846.36 6939.85,4850.00 6940.24,4851.58"/>
    </edge>
    <edge id=":-12878_15" function="internal">
        <lane id=":-12878_15_0" index="0" speed="13.89" length="13.29" shape="6940.24,4851.58 6940.90,4854.23 6940.45,4859.03 6938.49,4864.42"/>
    </edge>
    <edge id=":-12878_11" function="internal">
        <lane id=":-12878_11_0" index="0" speed="13.89" length="13.41" shape="6935.60,4863.04 6936.54,4859.93 6936.38,4856.87 6935.11,4853.84 6932.74,4850.85"/>
    </edge>
    <edge id=":-12878_12" function="internal">
        <lane id=":-12878_12_0" index="0" speed="13.89" length="22.68" shape="6935.60,4863.04 6937.90,4858.66 6941.09,4853.12 6944.43,4847.67 6947.18,4843.56"/>
    </edge>
    <edge id=":-12878_13" function="internal">
        <lane id=":-12878_13_0" index="0" speed="13.89" length="18.42" shape="6935.60,4863.04 6938.68,4858.14 6942.08,4855.67 6945.82,4855.61 6949.88,4857.98"/>
    </edge>
    <edge id=":-13430_0" function="internal">
        <lane id=":-13430_0_0" index="0" speed="13.89" length="14.41" shape="6514.45,4958.94 6504.97,4948.09"/>
    </edge>
    <edge id=":-13430_1" function="internal">
        <lane id=":-13430_1_0" index="0" speed="13.89" length="5.94" shape="6514.45,4958.94 6512.30,4955.61 6511.97,4953.67"/>
    </edge>
    <edge id=":-13430_6" function="internal">
        <lane id=":-13430_6_0" index="0" speed="13.89" length="8.44" shape="6511.97,4953.67 6511.77,4952.44 6512.86,4949.41 6515.59,4946.52"/>
    </edge>
    <edge id=":-13430_2" function="internal">
        <lane id=":-13430_2_0" index="0" speed="13.89" length="9.04" shape="6517.58,4949.03 6515.86,4950.84 6515.17,4952.75 6515.51,4954.75 6516.86,4956.84"/>
    </edge>
    <edge id=":-13430_3" function="internal">
        <lane id=":-13430_3_0" index="0" speed="13.89" length="14.26" shape="6517.58,4949.03 6514.18,4951.04 6510.95,4951.56 6507.88,4950.57 6504.97,4948.09"/>
    </edge>
    <edge id=":-13430_4" function="internal">
        <lane id=":-13430_4_0" index="0" speed="13.89" length="9.28" shape="6507.38,4945.99 6509.26,4947.58 6511.25,4948.20 6513.36,4947.85 6515.59,4946.52"/>
    </edge>
    <edge id=":-13430_5" function="internal">
        <lane id=":-13430_5_0" index="0" speed="13.89" length="14.41" shape="6507.38,4945.99 6516.86,4956.84"/>
    </edge>
    <edge id=":-15090_0" function="internal">
        <lane id=":-15090_0_0" index="0" speed="13.89" length="9.29" shape="6357.45,5029.16 6355.50,5027.44 6353.49,5026.71 6351.42,5026.96 6349.29,5028.19"/>
    </edge>
    <edge id=":-15090_1" function="internal">
        <lane id=":-15090_1_0" index="0" speed="13.89" length="17.18" shape="6357.45,5029.16 6354.39,5024.74 6353.25,5020.78 6354.03,5017.26 6356.73,5014.20"/>
    </edge>
    <edge id=":-15090_2" function="internal">
        <lane id=":-15090_2_0" index="0" speed="13.89" length="9.04" shape="6360.65,5019.26 6358.92,5021.06 6358.21,5022.95 6358.53,5024.95 6359.88,5027.04"/>
    </edge>
    <edge id=":-15090_3" function="internal">
        <lane id=":-15090_3_0" index="0" speed="13.89" length="14.47" shape="6360.65,5019.26 6349.29,5028.19"/>
        <lane id=":-15090_3_1" index="1" speed="13.89" length="14.47" shape="6358.69,5016.73 6347.29,5025.69"/>
    </edge>
    <edge id=":-15090_5" function="internal">
        <lane id=":-15090_5_0" index="0" speed="13.89" length="14.57" shape="6343.30,5020.69 6354.77,5011.67"/>
        <lane id=":-15090_5_1" index="1" speed="13.89" length="14.57" shape="6345.30,5023.19 6356.73,5014.20"/>
    </edge>
    <edge id=":-15090_7" function="internal">
        <lane id=":-15090_7_0" index="0" speed="13.89" length="5.20" shape="6345.30,5023.19 6348.70,5021.44 6350.08,5021.47"/>
    </edge>
    <edge id=":-15090_8" function="internal">
        <lane id=":-15090_8_0" index="0" speed="13.89" length="11.71" shape="6350.08,5021.47 6352.26,5021.50 6355.99,5023.37 6359.88,5027.04"/>
    </edge>
    <edge id=":-15276_0" function="internal">
        <lane id=":-15276_0_0" index="0" speed="13.89" length="15.07" shape="6937.29,5062.07 6922.84,5066.72"/>
        <lane id=":-15276_0_1" index="1" speed="13.89" length="15.07" shape="6936.20,5059.06 6921.96,5063.64"/>
    </edge>
    <edge id=":-15276_2" function="internal">
        <lane id=":-15276_2_0" index="0" speed="13.89" length="5.58" shape="6936.20,5059.06 6932.27,5059.67 6930.77,5059.13"/>
    </edge>
    <edge id=":-15276_8" function="internal">
        <lane id=":-15276_8_0" index="0" speed="13.89" length="11.47" shape="6930.77,5059.13 6928.90,5058.46 6926.10,5055.42 6923.86,5050.55"/>
    </edge>
    <edge id=":-15276_3" function="internal">
        <lane id=":-15276_3_0" index="0" speed="13.89" length="9.11" shape="6926.89,5049.53 6928.03,5051.78 6929.59,5053.12 6931.59,5053.54 6934.03,5053.04"/>
    </edge>
    <edge id=":-15276_4" function="internal">
        <lane id=":-15276_4_0" index="0" speed="13.89" length="17.13" shape="6926.89,5049.53 6928.06,5054.76 6927.62,5058.86 6925.59,5061.82 6921.96,5063.64"/>
    </edge>
    <edge id=":-15276_5" function="internal">
        <lane id=":-15276_5_0" index="0" speed="13.89" length="9.04" shape="6920.22,5057.49 6922.49,5056.47 6923.86,5054.98 6924.32,5053.00 6923.86,5050.55"/>
    </edge>
    <edge id=":-15276_6" function="internal">
        <lane id=":-15276_6_0" index="0" speed="13.89" length="14.62" shape="6920.22,5057.49 6934.03,5053.04"/>
        <lane id=":-15276_6_1" index="1" speed="13.89" length="14.62" shape="6921.09,5060.57 6935.11,5056.05"/>
    </edge>
    <edge id=":-15438_0" function="internal">
        <lane id=":-15438_0_0" index="0" speed="13.89" length="9.51" shape="6250.18,5296.76 6249.45,5294.33 6248.08,5292.70 6246.06,5291.85 6243.41,5291.79"/>
    </edge>
    <edge id=":-15438_1" function="internal">
        <lane id=":-15438_1_0" index="0" speed="13.89" length="20.99" shape="6250.18,5296.76 6247.12,5276.02"/>
        <lane id=":-15438_1_1" index="1" speed="13.89" length="20.99" shape="6253.35,5296.30 6250.28,5275.54"/>
        <lane id=":-15438_1_2" index="2" speed="13.89" length="20.99" shape="6256.51,5295.85 6253.45,5275.07"/>
    </edge>
    <edge id=":-15438_4" function="internal">
        <lane id=":-15438_4_0" index="0" speed="13.89" length="6.31" shape="6256.51,5295.85 6256.71,5290.57 6257.22,5289.67"/>
    </edge>
    <edge id=":-15438_16" function="internal">
        <lane id=":-15438_16_0" index="0" speed="13.89" length="15.67" shape="6257.22,5289.67 6259.01,5286.46 6263.39,5283.51 6269.87,5281.73"/>
    </edge>
    <edge id=":-15438_5" function="internal">
        <lane id=":-15438_5_0" index="0" speed="13.89" length="9.16" shape="6270.88,5288.05 6268.45,5288.79 6266.83,5290.11 6266.02,5292.00 6266.01,5294.47"/>
    </edge>
    <edge id=":-15438_6" function="internal">
        <lane id=":-15438_6_0" index="0" speed="13.89" length="27.58" shape="6270.37,5284.89 6243.05,5288.61"/>
    </edge>
    <edge id=":-15438_7" function="internal">
        <lane id=":-15438_7_0" index="0" speed="13.89" length="22.29" shape="6270.37,5284.89 6263.66,5285.18 6258.60,5283.64 6255.20,5280.27 6253.45,5275.07"/>
    </edge>
    <edge id=":-15438_8" function="internal">
        <lane id=":-15438_8_0" index="0" speed="13.89" length="9.25" shape="6262.94,5273.64 6263.67,5276.13 6264.98,5277.78 6266.88,5278.59 6269.36,5278.57"/>
    </edge>
    <edge id=":-15438_9" function="internal">
        <lane id=":-15438_9_0" index="0" speed="13.89" length="21.04" shape="6262.94,5273.64 6266.01,5294.47"/>
        <lane id=":-15438_9_1" index="1" speed="13.89" length="21.04" shape="6259.78,5274.11 6262.85,5294.93"/>
        <lane id=":-15438_9_2" index="2" speed="13.89" length="21.04" shape="6256.61,5274.59 6259.68,5295.39"/>
    </edge>
    <edge id=":-15438_12" function="internal">
        <lane id=":-15438_12_0" index="0" speed="13.89" length="6.55" shape="6256.61,5274.59 6256.46,5280.07 6255.94,5281.00"/>
    </edge>
    <edge id=":-15438_17" function="internal">
        <lane id=":-15438_17_0" index="0" speed="13.89" length="15.80" shape="6255.94,5281.00 6254.15,5284.24 6249.68,5287.08 6243.05,5288.61"/>
    </edge>
    <edge id=":-15438_13" function="internal">
        <lane id=":-15438_13_0" index="0" speed="13.89" length="9.03" shape="6242.34,5282.25 6244.74,5281.62 6246.34,5280.37 6247.14,5278.51 6247.12,5276.02"/>
    </edge>
    <edge id=":-15438_14" function="internal">
        <lane id=":-15438_14_0" index="0" speed="13.89" length="27.42" shape="6242.69,5285.43 6269.87,5281.73"/>
    </edge>
    <edge id=":-15438_15" function="internal">
        <lane id=":-15438_15_0" index="0" speed="13.89" length="22.19" shape="6242.69,5285.43 6249.49,5285.41 6254.59,5287.06 6257.99,5290.38 6259.68,5295.39"/>
    </edge>
    <edge id=":-15444_0" function="internal">
        <lane id=":-15444_0_0" index="0" speed="13.89" length="9.05" shape="6948.17,4389.65 6946.03,4388.29 6944.06,4388.04 6942.27,4388.90 6940.66,4390.87"/>
    </edge>
    <edge id=":-15444_1" function="internal">
        <lane id=":-15444_1_0" index="0" speed="13.89" length="14.86" shape="6948.17,4389.65 6945.25,4387.34 6942.17,4385.28 6938.94,4383.47 6935.56,4381.91"/>
    </edge>
    <edge id=":-15444_2" function="internal">
        <lane id=":-15444_2_0" index="0" speed="13.89" length="15.86" shape="6936.78,4378.95 6940.30,4380.59 6943.82,4382.58 6947.19,4384.82 6950.25,4387.21"/>
    </edge>
    <edge id=":-15444_3" function="internal">
        <lane id=":-15444_3_0" index="0" speed="13.89" length="6.78" shape="6936.78,4378.95 6940.34,4381.07 6941.83,4383.25"/>
    </edge>
    <edge id=":-15444_6" function="internal">
        <lane id=":-15444_6_0" index="0" speed="13.89" length="8.06" shape="6941.83,4383.25 6942.18,4383.76 6942.28,4387.03 6940.66,4390.87"/>
    </edge>
    <edge id=":-15444_4" function="internal">
        <lane id=":-15444_4_0" index="0" speed="13.89" length="9.09" shape="6937.92,4389.22 6938.92,4386.86 6938.85,4384.86 6937.73,4383.20 6935.56,4381.91"/>
    </edge>
    <edge id=":-15444_5" function="internal">
        <lane id=":-15444_5_0" index="0" speed="13.89" length="14.86" shape="6937.92,4389.22 6940.56,4385.99 6943.49,4384.58 6946.73,4384.98 6950.25,4387.21"/>
    </edge>
    <edge id=":-15558_0" function="internal">
        <lane id=":-15558_0_0" index="0" speed="13.89" length="12.52" shape="6334.26,4785.27 6331.70,4782.18 6329.17,4780.08 6326.67,4778.98 6324.19,4778.87"/>
    </edge>
    <edge id=":-15558_1" function="internal">
        <lane id=":-15558_1_0" index="0" speed="13.89" length="17.13" shape="6334.26,4785.27 6331.81,4780.69 6331.88,4777.32 6334.47,4775.17 6339.58,4774.22"/>
    </edge>
    <edge id=":-15558_2" function="internal">
        <lane id=":-15558_2_0" index="0" speed="13.89" length="9.29" shape="6339.75,4777.42 6336.98,4777.93 6335.57,4779.10 6335.54,4780.93 6336.86,4783.41"/>
    </edge>
    <edge id=":-15558_3" function="internal">
        <lane id=":-15558_3_0" index="0" speed="13.89" length="15.64" shape="6339.75,4777.42 6335.91,4777.65 6331.95,4777.95 6328.00,4778.35 6324.19,4778.87"/>
    </edge>
    <edge id=":-15558_4" function="internal">
        <lane id=":-15558_4_0" index="0" speed="13.89" length="15.98" shape="6323.68,4775.71 6327.54,4775.18 6331.61,4774.77 6335.68,4774.46 6339.58,4774.22"/>
    </edge>
    <edge id=":-15558_5" function="internal">
        <lane id=":-15558_5_0" index="0" speed="13.89" length="5.70" shape="6323.68,4775.71 6327.08,4775.78 6329.22,4776.61"/>
    </edge>
    <edge id=":-15558_6" function="internal">
        <lane id=":-15558_6_0" index="0" speed="13.89" length="10.37" shape="6329.22,4776.61 6330.42,4777.08 6333.68,4779.63 6336.86,4783.41"/>
    </edge>
    <edge id=":-16128_0" function="internal">
        <lane id=":-16128_0_0" index="0" speed="13.89" length="9.45" shape="6149.22,4627.11 6148.55,4624.74 6147.21,4623.10 6145.21,4622.19 6142.55,4622.00"/>
    </edge>
    <edge id=":-16128_1" function="internal">
        <lane id=":-16128_1_0" index="0" speed="13.89" length="20.58" shape="6149.22,4627.11 6147.20,4606.48"/>
        <lane id=":-16128_1_1" index="1" speed="13.89" length="20.58" shape="6152.39,4626.72 6150.39,4606.24"/>
        <lane id=":-16128_1_2" index="2" speed="13.89" length="20.58" shape="6155.57,4626.33 6153.58,4606.00"/>
    </edge>
    <edge id=":-16128_4" function="internal">
        <lane id=":-16128_4_0" index="0" speed="13.89" length="6.33" shape="6155.57,4626.33 6155.91,4621.26 6156.58,4620.20"/>
    </edge>
    <edge id=":-16128_16" function="internal">
        <lane id=":-16128_16_0" index="0" speed="13.89" length="15.40" shape="6156.58,4620.20 6158.34,4617.36 6162.85,4614.61 6169.43,4613.01"/>
    </edge>
    <edge id=":-16128_5" function="internal">
        <lane id=":-16128_5_0" index="0" speed="13.89" length="11.46" shape="6169.85,4616.18 6167.39,4617.03 6165.78,4618.81 6165.01,4621.52 6165.10,4625.16"/>
    </edge>
    <edge id=":-16128_6" function="internal">
        <lane id=":-16128_6_0" index="0" speed="13.89" length="27.61" shape="6169.85,4616.18 6142.36,4618.80"/>
    </edge>
    <edge id=":-16128_7" function="internal">
        <lane id=":-16128_7_0" index="0" speed="13.89" length="9.47" shape="6169.85,4616.18 6163.08,4616.31 6160.52,4615.47"/>
    </edge>
    <edge id=":-16128_17" function="internal">
        <lane id=":-16128_17_0" index="0" speed="13.89" length="12.62" shape="6160.52,4615.47 6158.10,4614.66 6154.94,4611.23 6153.58,4606.00"/>
    </edge>
    <edge id=":-16128_8" function="internal">
        <lane id=":-16128_8_0" index="0" speed="13.89" length="11.35" shape="6163.16,4605.29 6163.78,4608.95 6165.04,4611.46 6166.92,4612.81 6169.43,4613.01"/>
    </edge>
    <edge id=":-16128_9" function="internal">
        <lane id=":-16128_9_0" index="0" speed="13.89" length="20.11" shape="6163.16,4605.29 6165.10,4625.16"/>
        <lane id=":-16128_9_1" index="1" speed="13.89" length="20.11" shape="6159.97,4605.53 6161.92,4625.55"/>
        <lane id=":-16128_9_2" index="2" speed="13.89" length="20.11" shape="6156.77,4605.77 6158.74,4625.94"/>
    </edge>
    <edge id=":-16128_12" function="internal">
        <lane id=":-16128_12_0" index="0" speed="13.89" length="6.23" shape="6156.77,4605.77 6156.21,4611.14 6155.76,4611.83"/>
    </edge>
    <edge id=":-16128_18" function="internal">
        <lane id=":-16128_18_0" index="0" speed="13.89" length="15.92" shape="6155.76,4611.83 6153.62,4615.10 6149.01,4617.66 6142.36,4618.80"/>
    </edge>
    <edge id=":-16128_13" function="internal">