<?xml version="1.0" encoding="UTF-8"?>

<!-- generated on jeu. 31 janv. 2019 14:53:28 CET by Eclipse SUMO netedit Version 1.0.1
<configuration xmlns:xsi="http://www.w3.org/2001/XMLSchema-instance" xsi:noNamespaceSchemaLocation="http://sumo.dlr.de/xsd/netconvertConfiguration.xsd">

    <input>
        <sumo-net-file value="/home/joseph/Projects/F2MD/SumoExtractor/Extract%20Lust/LuSTScenario/lust.net.xml"/>
    </input>

    <output>
        <output-file value="/home/joseph/Projects/F2MD/SumoExtractor/Extract%20Lust/LuSTMicroScenario/lust.net.xml"/>
    </output>

    <processing>
        <offset.disable-normalization value="true"/>
        <lefthand value="false"/>
    </processing>

    <junctions>
        <no-turnarounds value="true"/>
        <junctions.corner-detail value="0"/>
        <junctions.limit-turn-speed value="-1"/>
        <rectangular-lane-cut value="false"/>
    </junctions>

    <pedestrian>
        <walkingareas value="false"/>
    </pedestrian>

</configuration>
-->

<additional xmlns:xsi="http://www.w3.org/2001/XMLSchema-instance" xsi:noNamespaceSchemaLocation="http://sumo.dlr.de/xsd/additional_file.xsd">
    <poly id="-146982" type="building" color="red" fill="1" layer="2.00" shape="6920.010000,4860.750000 6913.080000,4867.590000 6904.400000,4881.710000 6913.280000,4886.990000 6929.970000,4863.390000 6929.730000,4856.330000 6928.450000,4854.530000 6920.010000,4860.750000"/>
    <poly id="-147010" type="building" color="red" fill="1" layer="2.00" shape="6509.960000,5051.550000 6522.270000,5060.370000 6534.380000,5067.260000 6546.330000,5073.070000 6557.990000,5077.570000 6563.400000,5064.220000 6550.430000,5060.010000 6539.700000,5054.630000 6527.310000,5046.670000 6518.350000,5040.140000 6509.960000,5051.550000"/>
    <poly id="-147030" type="building" color="red" fill="1" layer="2.00" shape="6539.330000,4940.190000 6566.130000,4975.440000 6586.560000,4960.100000 6583.920000,4957.430000 6594.250000,4949.430000 6587.160000,4940.450000 6580.480000,4932.020000 6568.710000,4917.130000 6556.910000,4926.400000 6539.330000,4940.190000"/>
    <poly id="-147068" type="building" color="red" fill="1" layer="2.00" shape="6989.680000,4962.390000 6987.990000,4960.950000 6983.910000,4965.700000 6985.790000,4967.300000 6974.880000,4983.160000 6991.970000,4994.850000 7001.130000,4981.540000 7003.580000,4983.730000 7009.950000,4976.640000 7007.570000,4974.500000 7017.360000,4964.090000 7001.760000,4949.520000 6989.680000,4962.390000"/>
    <poly id="-147106" type="building" color="red" fill="1" layer="2.00" shape="6619.280000,5102.170000 6622.930000,5113.390000 6663.950000,5100.110000 6660.300000,5088.900000 6619.280000,5102.170000"/>
    <poly id="-147120" type="building" color="red" fill="1" layer="2.00" shape="6489.380000,5238.700000 6486.440000,5226.500000 6468.990000,5230.700000 6468.540000,5228.140000 6452.900000,5232.010000 6453.500000,5235.250000 6457.710000,5252.560000 6490.830000,5244.720000 6489.380000,5238.700000"/>
    <poly id="-147170" type="building" color="red" fill="1" layer="2.00" shape="6497.320000,4639.090000 6499.190000,4642.090000 6502.080000,4640.430000 6500.210000,4637.400000 6497.320000,4639.090000"/>
    <poly id="-147286" type="building" color="red" fill="1" layer="2.00" shape="6240.390000,5051.750000 6242.460000,5066.140000 6246.820000,5065.520000 6248.030000,5073.930000 6241.240000,5074.910000 6240.780000,5071.690000 6234.000000,5072.660000 6231.180000,5053.060000 6240.390000,5051.750000"/>
    <poly id="-147446" type="building" color="red" fill="1" layer="2.00" shape="6754.770000,4733.470000 6748.210000,4728.740000 6754.270000,4720.320000 6760.840000,4725.010000 6754.770000,4733.470000"/>
    <poly id="-147530" type="building" color="red" fill="1" layer="2.00" shape="6977.150000,4870.490000 6983.820000,4875.700000 6992.300000,4864.920000 6985.640000,4859.700000 6977.150000,4870.490000"/>
    <poly id="-147634" type="building" color="red" fill="1" layer="2.00" shape="7233.900000,5005.950000 7241.360000,5011.450000 7262.840000,4981.940000 7269.440000,4971.190000 7264.110000,4967.550000 7257.100000,4977.100000 7254.480000,4975.030000 7233.900000,5005.950000"/>
    <poly id="-147688" type="building" color="red" fill="1" layer="2.00" shape="6388.700000,4869.680000 6366.200000,4887.580000 6373.140000,4896.260000 6395.650000,4878.380000 6388.700000,4869.680000"/>
    <poly id="-147738" type="building" color="red" fill="1" layer="2.00" shape="6443.040000,4414.920000 6458.050000,4394.260000 6471.500000,4403.980000 6456.480000,4424.640000 6443.040000,4414.920000"/>
    <poly id="-147838" type="building" color="red" fill="1" layer="2.00" shape="6346.490000,5012.110000 6340.150000,5004.010000 6316.890000,5022.190000 6323.240000,5030.280000 6346.490000,5012.110000"/>
    <poly id="-147904" type="building" color="red" fill="1" layer="2.00" shape="6968.980000,5084.510000 6964.530000,5069.590000 6996.330000,5058.700000 7000.950000,5077.870000 6986.360000,5082.300000 6985.460000,5078.850000 6968.980000,5084.510000"/>
    <poly id="-147996" type="building" color="red" fill="1" layer="2.00" shape="6200.730000,4753.350000 6227.860000,4749.790000 6225.970000,4735.400000 6225.240000,4729.920000 6214.200000,4731.140000 6207.320000,4732.300000 6208.030000,4737.760000 6198.900000,4738.960000 6190.350000,4740.040000 6194.000000,4768.880000 6198.200000,4800.770000 6212.160000,4798.940000 6207.950000,4767.040000 6202.550000,4767.750000 6200.730000,4753.350000"/>
    <poly id="-148066" type="building" color="red" fill="1" layer="2.00" shape="6930.330000,4828.710000 6935.640000,4833.640000 6948.120000,4820.270000 6942.800000,4815.330000 6939.150000,4819.250000 6930.330000,4828.710000"/>
    <poly id="-148222" type="building" color="red" fill="1" layer="2.00" shape="6403.070000,5265.800000 6400.590000,5255.630000 6398.850000,5248.500000 6453.500000,5235.250000 6457.710000,5252.560000 6403.070000,5265.800000"/>
    <poly id="-148228" type="building" color="red" fill="1" layer="2.00" shape="6293.020000,5250.220000 6294.450000,5256.120000 6297.740000,5255.320000 6300.210000,5265.520000 6322.230000,5260.200000 6319.670000,5249.650000 6304.420000,5253.330000 6303.080000,5247.780000 6293.020000,5250.220000"/>
    <poly id="-148286" type="building" color="red" fill="1" layer="2.00" shape="6890.940000,4966.550000 6884.020000,4977.160000 6895.130000,4984.360000 6899.290000,4977.980000 6902.060000,4973.760000 6890.940000,4966.550000"/>
    <poly id="-148292" type="building" color="red" fill="1" layer="2.00" shape="6970.340000,4933.950000 6980.040000,4941.470000 6989.650000,4929.160000 6979.950000,4921.640000 6970.340000,4933.950000"/>
    <poly id="-148294" type="building" color="red" fill="1" layer="2.00" shape="6273.290000,5124.920000 6288.200000,5114.090000 6280.670000,5103.790000 6274.370000,5095.170000 6259.470000,5105.990000 6273.290000,5124.920000"/>
    <poly id="-148316" type="building" color="red" fill="1" layer="2.00" shape="7010.880000,4920.300000 7007.010000,4917.300000 7000.810000,4925.260000 7004.680000,4928.260000 7010.880000,4920.300000"/>
    <poly id="-148398" type="building" color="red" fill="1" layer="2.00" shape="6719.920000,4587.940000 6737.510000,4598.030000 6743.240000,4588.080000 6738.880000,4585.580000 6737.400000,4588.140000 6728.420000,4582.980000 6729.620000,4580.900000 6725.380000,4578.470000 6719.920000,4587.940000"/>
    <poly id="-148492" type="building" color="red" fill="1" layer="2.00" shape="6948.240000,4804.520000 6954.000000,4797.940000 6962.150000,4805.050000 6956.390000,4811.630000 6948.240000,4804.520000"/>
    <poly id="-148550" type="building" color="red" fill="1" layer="2.00" shape="6788.890000,4513.990000 6798.960000,4519.790000 6804.100000,4510.900000 6807.340000,4512.760000 6811.050000,4506.340000 6805.910000,4503.390000 6803.860000,4506.930000 6800.940000,4505.250000 6799.140000,4508.370000 6793.880000,4505.350000 6788.890000,4513.990000"/>
    <poly id="-148640" type="building" color="red" fill="1" layer="2.00" shape="6405.360000,4387.680000 6397.560000,4382.040000 6413.380000,4360.270000 6442.770000,4381.510000 6426.940000,4403.280000 6405.360000,4387.680000"/>
    <poly id="-148726" type="building" color="red" fill="1" layer="2.00" shape="6999.060000,4888.680000 7004.190000,4892.670000 7010.190000,4885.030000 7005.050000,4881.030000 6999.060000,4888.680000"/>
    <poly id="-148832" type="building" color="red" fill="1" layer="2.00" shape="6617.070000,4848.110000 6618.970000,4852.610000 6627.960000,4848.830000 6632.960000,4860.690000 6641.730000,4857.010000 6634.830000,4840.650000 6617.070000,4848.110000"/>
    <poly id="-148858" type="building" color="red" fill="1" layer="2.00" shape="6642.120000,4818.990000 6652.120000,4843.890000 6660.670000,4840.470000 6653.900000,4823.630000 6677.890000,4814.050000 6674.650000,4805.990000 6642.120000,4818.990000"/>
    <poly id="-148916" type="building" color="red" fill="1" layer="2.00" shape="7009.900000,4932.280000 7014.310000,4935.700000 7010.080000,4941.120000 7013.560000,4943.820000 7017.800000,4938.370000 7021.650000,4933.430000 7023.980000,4930.440000 7016.100000,4924.330000 7009.900000,4932.280000"/>
    <poly id="-148948" type="building" color="red" fill="1" layer="2.00" shape="7166.710000,5098.010000 7176.510000,5104.400000 7187.820000,5111.770000 7197.090000,5117.820000 7208.020000,5103.180000 7175.850000,5080.770000 7166.710000,5098.010000"/>
    <poly id="-149106" type="building" color="red" fill="1" layer="2.00" shape="6889.510000,4817.690000 6884.620000,4814.200000 6879.770000,4820.930000 6884.660000,4824.420000 6889.510000,4817.690000"/>
    <poly id="-149150" type="building" color="red" fill="1" layer="2.00" shape="6757.230000,4472.270000 6765.320000,4474.850000 6773.130000,4450.610000 6765.040000,4448.030000 6757.230000,4472.270000"/>
    <poly id="-149158" type="building" color="red" fill="1" layer="2.00" shape="6904.820000,4638.210000 6911.280000,4644.620000 6890.090000,4667.430000 6878.730000,4658.410000 6882.070000,4652.400000 6887.500000,4656.220000 6904.820000,4638.210000"/>
    <poly id="-149166" type="building" color="red" fill="1" layer="2.00" shape="6765.820000,4728.490000 6760.840000,4725.010000 6757.050000,4730.400000 6762.030000,4733.880000 6765.820000,4728.490000"/>
    <poly id="-149212" type="building" color="red" fill="1" layer="2.00" shape="6741.650000,4724.020000 6735.090000,4719.290000 6741.120000,4710.950000 6747.690000,4715.630000 6741.650000,4724.020000"/>
    <poly id="-149278" type="building" color="red" fill="1" layer="2.00" shape="6704.840000,4687.380000 6730.740000,4706.170000 6737.460000,4696.970000 6711.560000,4678.180000 6704.840000,4687.380000"/>
    <poly id="-149392" type="building" color="red" fill="1" layer="2.00" shape="6367.640000,5225.720000 6371.010000,5236.560000 6390.940000,5230.410000 6391.840000,5233.330000 6397.330000,5231.630000 6393.070000,5217.870000 6367.640000,5225.720000"/>
    <poly id="-149462" type="building" color="red" fill="1" layer="2.00" shape="6891.180000,4531.980000 6908.740000,4545.980000 6914.710000,4538.530000 6897.150000,4524.530000 6891.180000,4531.980000"/>
    <poly id="-149474" type="building" color="red" fill="1" layer="2.00" shape="6366.690000,5111.150000 6371.180000,5122.960000 6403.830000,5110.560000 6399.330000,5098.770000 6366.690000,5111.150000"/>
    <poly id="-149592" type="building" color="red" fill="1" layer="2.00" shape="6979.070000,4623.430000 6984.850000,4631.130000 6991.200000,4626.390000 6985.410000,4618.690000 6982.040000,4621.210000 6979.070000,4623.430000"/>
    <poly id="-149594" type="building" color="red" fill="1" layer="2.00" shape="6604.420000,4986.340000 6610.450000,4993.580000 6628.230000,4978.870000 6622.210000,4971.630000 6604.420000,4986.340000"/>
    <poly id="-149636" type="building" color="red" fill="1" layer="2.00" shape="6227.590000,4905.560000 6240.050000,4903.810000 6234.690000,4865.710000 6239.780000,4864.220000 6238.530000,4853.210000 6237.300000,4838.690000 6220.020000,4851.940000 6203.860000,4854.210000 6212.490000,4915.510000 6228.680000,4913.240000 6227.590000,4905.560000"/>
    <poly id="-149660" type="building" color="red" fill="1" layer="2.00" shape="6946.310000,4805.530000 6941.900000,4801.630000 6937.900000,4806.140000 6942.310000,4810.030000 6946.310000,4805.530000"/>
    <poly id="-149740" type="building" color="red" fill="1" layer="2.00" shape="6582.390000,5083.270000 6597.650000,5084.010000 6613.180000,5082.440000 6631.550000,5078.850000 6652.740000,5070.320000 6648.130000,5057.360000 6639.070000,5060.600000 6640.160000,5064.060000 6627.160000,5068.530000 6613.710000,5070.970000 6597.680000,5072.310000 6591.630000,5072.060000 6591.740000,5068.560000 6584.370000,5068.600000 6584.400000,5072.700000 6582.100000,5072.550000 6582.390000,5083.270000"/>
    <poly id="-149784" type="building" color="red" fill="1" layer="2.00" shape="7034.730000,4999.910000 7043.060000,5007.610000 7048.970000,5001.250000 7040.640000,4993.550000 7034.730000,4999.910000"/>
    <poly id="-149792" type="building" color="red" fill="1" layer="2.00" shape="6853.310000,4756.920000 6858.410000,4761.280000 6865.110000,4753.550000 6860.000000,4749.190000 6859.670000,4749.520000 6853.310000,4756.920000"/>
    <poly id="-149802" type="building" color="red" fill="1" layer="2.00" shape="7059.510000,4965.920000 7054.270000,4960.840000 7047.300000,4968.020000 7052.530000,4973.090000 7059.510000,4965.920000"/>
    <poly id="-150030" type="building" color="red" fill="1" layer="2.00" shape="6285.640000,5141.060000 6292.350000,5149.700000 6331.680000,5119.270000 6324.970000,5110.640000 6285.640000,5141.060000"/>
    <poly id="-150198" type="building" color="red" fill="1" layer="2.00" shape="6921.950000,4625.860000 6926.520000,4631.390000 6933.990000,4625.260000 6929.430000,4619.720000 6921.950000,4625.860000"/>
    <poly id="-150244" type="building" color="red" fill="1" layer="2.00" shape="6900.200000,4828.060000 6889.510000,4817.690000 6884.660000,4824.420000 6882.320000,4831.780000 6890.680000,4839.620000 6893.320000,4834.660000 6900.200000,4828.060000"/>
    <poly id="-150346" type="building" color="red" fill="1" layer="2.00" shape="6324.640000,4953.980000 6296.480000,4957.090000 6297.620000,4967.430000 6325.790000,4964.320000 6324.640000,4953.980000"/>
    <poly id="-150508" type="building" color="red" fill="1" layer="2.00" shape="6930.330000,4930.230000 6927.350000,4934.800000 6916.330000,4927.640000 6919.300000,4923.070000 6930.330000,4930.230000"/>
    <poly id="-150612" type="building" color="red" fill="1" layer="2.00" shape="6887.140000,4495.540000 6895.140000,4500.930000 6905.460000,4485.660000 6897.450000,4480.280000 6887.140000,4495.540000"/>
    <poly id="-150678" type="building" color="red" fill="1" layer="2.00" shape="6183.730000,5010.290000 6198.910000,5113.540000 6214.360000,5111.280000 6199.200000,5008.020000 6183.730000,5010.290000"/>
    <poly id="-150734" type="building" color="red" fill="1" layer="2.00" shape="6479.450000,4882.190000 6488.220000,4891.840000 6510.100000,4872.090000 6501.340000,4862.440000 6479.450000,4882.190000"/>
    <poly id="-150852" type="building" color="red" fill="1" layer="2.00" shape="6306.830000,4607.570000 6315.870000,4606.590000 6316.740000,4614.580000 6329.890000,4613.150000 6332.480000,4636.960000 6310.290000,4639.360000 6306.830000,4607.570000"/>
    <poly id="-150916" type="building" color="red" fill="1" layer="2.00" shape="7063.860000,4633.040000 7073.070000,4640.220000 7095.310000,4611.880000 7086.110000,4604.690000 7063.860000,4633.040000"/>
    <poly id="-150920" type="building" color="red" fill="1" layer="2.00" shape="6745.800000,4415.500000 6754.550000,4418.690000 6761.340000,4400.250000 6752.590000,4397.040000 6745.800000,4415.500000"/>
    <poly id="-151018" type="building" color="red" fill="1" layer="2.00" shape="6171.290000,5029.210000 6181.130000,5027.950000 6179.720000,5017.000000 6169.880000,5018.260000 6171.290000,5029.210000"/>
    <poly id="-151118" type="building" color="red" fill="1" layer="2.00" shape="6817.070000,4439.850000 6823.520000,4443.820000 6827.050000,4438.120000 6820.590000,4434.150000 6817.070000,4439.850000"/>
    <poly id="-151148" type="building" color="red" fill="1" layer="2.00" shape="6761.760000,4737.100000 6760.100000,4738.270000 6758.740000,4736.380000 6752.850000,4740.560000 6760.100000,4750.670000 6767.640000,4745.300000 6761.760000,4737.100000"/>
    <poly id="-151182" type="building" color="red" fill="1" layer="2.00" shape="6868.890000,4690.400000 6872.500000,4686.170000 6862.170000,4677.400000 6858.560000,4681.630000 6868.890000,4690.400000"/>
    <poly id="-151192" type="building" color="red" fill="1" layer="2.00" shape="6929.410000,4526.580000 6948.420000,4540.040000 6953.670000,4532.690000 6934.660000,4519.220000 6929.410000,4526.580000"/>
    <poly id="-151250" type="building" color="red" fill="1" layer="2.00" shape="7108.420000,4602.670000 7131.080000,4620.200000 7150.750000,4593.000000 7148.390000,4590.680000 7146.480000,4589.060000 7112.060000,4597.720000 7108.420000,4602.670000"/>
    <poly id="-151296" type="building" color="red" fill="1" layer="2.00" shape="6851.710000,4742.250000 6855.700000,4737.520000 6863.980000,4744.450000 6860.000000,4749.190000 6851.710000,4742.250000"/>
    <poly id="-151344" type="building" color="red" fill="1" layer="2.00" shape="6832.830000,4717.340000 6830.530000,4715.530000 6833.150000,4712.200000 6828.900000,4708.850000 6820.580000,4719.380000 6827.150000,4724.540000 6832.830000,4717.340000"/>
    <poly id="-151352" type="building" color="red" fill="1" layer="2.00" shape="6536.310000,4502.360000 6561.690000,4464.600000 6582.360000,4478.410000 6556.960000,4516.160000 6536.310000,4502.360000"/>
    <poly id="-151404" type="building" color="red" fill="1" layer="2.00" shape="6589.430000,5042.970000 6605.510000,5043.070000 6618.950000,5040.390000 6632.120000,5036.990000 6629.260000,5025.530000 6616.970000,5029.730000 6603.650000,5032.290000 6589.500000,5032.110000 6589.430000,5042.970000"/>
    <poly id="-151436" type="building" color="red" fill="1" layer="2.00" shape="6846.220000,4788.970000 6845.700000,4789.630000 6849.590000,4792.730000 6858.030000,4785.450000 6859.270000,4783.870000 6853.960000,4779.730000 6846.220000,4788.970000"/>
    <poly id="-151578" type="building" color="red" fill="1" layer="2.00" shape="6258.580000,5218.870000 6256.520000,5204.450000 6265.770000,5203.120000 6267.840000,5217.550000 6258.580000,5218.870000"/>
    <poly id="-151608" type="building" color="red" fill="1" layer="2.00" shape="6260.250000,5229.470000 6270.850000,5227.960000 6269.730000,5220.100000 6259.130000,5221.610000 6260.250000,5229.470000"/>
    <poly id="-151660" type="building" color="red" fill="1" layer="2.00" shape="6442.680000,4443.610000 6413.300000,4422.370000 6426.940000,4403.280000 6443.040000,4414.920000 6456.480000,4424.640000 6442.680000,4443.610000"/>
    <poly id="-151820" type="building" color="red" fill="1" layer="2.00" shape="6814.420000,5042.760000 6807.220000,5037.850000 6797.490000,5033.280000 6782.360000,5029.640000 6782.060000,5034.470000 6772.370000,5034.000000 6772.700000,5030.130000 6770.400000,5029.850000 6771.790000,5015.700000 6773.390000,5016.360000 6774.890000,4992.310000 6772.960000,4992.510000 6773.640000,4978.860000 6775.820000,4978.770000 6775.660000,4974.680000 6785.590000,4975.140000 6785.730000,4978.750000 6803.820000,4983.850000 6824.230000,4992.830000 6837.740000,5001.240000 6852.110000,5010.330000 6853.360000,5008.600000 6864.280000,5015.780000 6833.700000,5060.230000 6824.380000,5053.590000 6846.690000,5020.420000 6845.320000,5019.400000 6846.000000,5018.280000 6828.410000,5007.260000 6817.050000,5000.830000 6785.020000,4991.680000 6783.220000,5017.310000 6789.410000,5018.040000 6802.520000,5022.480000 6820.240000,5033.740000 6814.420000,5042.760000"/>
    <poly id="-151946" type="building" color="red" fill="1" layer="2.00" shape="6295.440000,4836.910000 6307.650000,4862.870000 6317.060000,4858.470000 6304.860000,4832.500000 6295.440000,4836.910000"/>
    <poly id="-152038" type="building" color="red" fill="1" layer="2.00" shape="7089.610000,5027.120000 7094.160000,5022.970000 7089.700000,5018.110000 7085.160000,5022.270000 7089.610000,5027.120000"/>
    <poly id="-152158" type="building" color="red" fill="1" layer="2.00" shape="6695.750000,4862.540000 6698.950000,4876.980000 6736.330000,4869.630000 6764.710000,4870.850000 6765.160000,4851.010000 6766.490000,4839.910000 6763.960000,4839.780000 6764.750000,4820.370000 6767.610000,4820.260000 6770.650000,4787.840000 6729.400000,4786.020000 6709.490000,4791.560000 6714.520000,4803.560000 6714.290000,4813.370000 6751.620000,4815.730000 6750.710000,4854.960000 6738.040000,4853.920000 6695.750000,4862.540000"/>
    <poly id="-152182" type="building" color="red" fill="1" layer="2.00" shape="6426.940000,4403.280000 6413.300000,4422.370000 6391.560000,4406.650000 6405.360000,4387.680000 6426.940000,4403.280000"/>
    <poly id="-152186" type="building" color="red" fill="1" layer="2.00" shape="6177.760000,4664.170000 6174.680000,4646.000000 6191.590000,4642.870000 6194.820000,4661.170000 6190.130000,4662.000000 6177.760000,4664.170000"/>
    <poly id="-152196" type="building" color="red" fill="1" layer="2.00" shape="7059.410000,4928.720000 7053.240000,4923.430000 7047.180000,4930.480000 7053.340000,4935.750000 7059.410000,4928.720000"/>
    <poly id="-152264" type="building" color="red" fill="1" layer="2.00" shape="6281.330000,4927.930000 6295.200000,4935.030000 6308.960000,4908.330000 6295.090000,4901.220000 6281.330000,4927.930000"/>
    <poly id="-152280" type="building" color="red" fill="1" layer="2.00" shape="6935.030000,4899.110000 6930.420000,4906.020000 6941.800000,4913.560000 6946.400000,4906.650000 6945.370000,4905.960000 6935.030000,4899.110000"/>
    <poly id="-152306" type="building" color="red" fill="1" layer="2.00" shape="6985.840000,4805.370000 6990.640000,4799.950000 6997.460000,4805.950000 6992.650000,4811.380000 6985.840000,4805.370000"/>
    <poly id="-152368" type="building" color="red" fill="1" layer="2.00" shape="6907.420000,4751.090000 6917.660000,4759.590000 6921.210000,4755.350000 6910.970000,4746.830000 6907.420000,4751.090000"/>
    <poly id="-152404" type="building" color="red" fill="1" layer="2.00" shape="6992.740000,4576.690000 6998.870000,4568.450000 6979.420000,4554.070000 6973.290000,4562.300000 6992.740000,4576.690000"/>
    <poly id="-152450" type="building" color="red" fill="1" layer="2.00" shape="6997.750000,4558.540000 7003.680000,4564.470000 7009.180000,4559.000000 7003.250000,4553.070000 6997.750000,4558.540000"/>
    <poly id="-152680" type="building" color="red" fill="1" layer="2.00" shape="7001.160000,4839.290000 7010.000000,4846.740000 7023.590000,4830.700000 7014.750000,4823.260000 7001.160000,4839.290000"/>
    <poly id="-152688" type="building" color="red" fill="1" layer="2.00" shape="6232.700000,4693.380000 6236.880000,4722.550000 6223.020000,4724.530000 6218.850000,4695.350000 6232.700000,4693.380000"/>
    <poly id="-152744" type="building" color="red" fill="1" layer="2.00" shape="6686.120000,4534.060000 6697.870000,4540.180000 6702.510000,4531.340000 6690.740000,4525.220000 6686.120000,4534.060000"/>
    <poly id="-152850" type="building" color="red" fill="1" layer="2.00" shape="6644.950000,4437.440000 6674.010000,4446.200000 6679.010000,4427.730000 6650.290000,4419.810000 6644.950000,4437.440000"/>
    <poly id="-152868" type="building" color="red" fill="1" layer="2.00" shape="6204.200000,4726.750000 6205.200000,4732.660000 6207.320000,4732.300000 6214.200000,4731.140000 6213.210000,4725.270000 6204.200000,4726.750000"/>
    <poly id="-153002" type="building" color="red" fill="1" layer="2.00" shape="6559.700000,4881.600000 6564.090000,4891.080000 6573.580000,4886.700000 6569.200000,4877.230000 6559.700000,4881.600000"/>
    <poly id="-153082" type="building" color="red" fill="1" layer="2.00" shape="6669.340000,4361.050000 6677.240000,4363.120000 6677.870000,4360.740000 6700.480000,4366.630000 6694.350000,4389.990000 6663.830000,4382.030000 6669.340000,4361.050000"/>
    <poly id="-153120" type="building" color="red" fill="1" layer="2.00" shape="6390.470000,5052.720000 6414.090000,5061.800000 6419.320000,5049.770000 6405.790000,5044.030000 6395.520000,5040.210000 6390.470000,5052.720000"/>
    <poly id="-153214" type="building" color="red" fill="1" layer="2.00" shape="6654.870000,4581.640000 6668.140000,4589.050000 6673.260000,4579.940000 6660.000000,4572.530000 6654.870000,4581.640000"/>
    <poly id="-153228" type="building" color="red" fill="1" layer="2.00" shape="6610.170000,4650.260000 6617.980000,4656.780000 6643.570000,4626.320000 6635.770000,4619.800000 6610.170000,4650.260000"/>
    <poly id="-153258" type="building" color="red" fill="1" layer="2.00" shape="6990.230000,4649.220000 6998.120000,4658.300000 7015.510000,4643.270000 7007.620000,4634.180000 6990.230000,4649.220000"/>
    <poly id="-153354" type="building" color="red" fill="1" layer="2.00" shape="6297.260000,4890.980000 6286.650000,4866.980000 6273.140000,4872.920000 6283.740000,4896.920000 6297.260000,4890.980000"/>
    <poly id="-153418" type="building" color="red" fill="1" layer="2.00" shape="6965.500000,5033.560000 6966.310000,5035.470000 7028.640000,5012.940000 7017.740000,5000.560000 7010.670000,5003.390000 7002.370000,5010.020000 6965.770000,5022.500000 6966.350000,5023.700000 6962.780000,5025.390000 6965.500000,5033.560000"/>
    <poly id="-153454" type="building" color="red" fill="1" layer="2.00" shape="6699.230000,4772.410000 6690.860000,4775.690000 6686.950000,4765.790000 6695.320000,4762.500000 6699.230000,4772.410000"/>
    <poly id="-153508" type="building" color="red" fill="1" layer="2.00" shape="6897.020000,4849.800000 6886.930000,4877.460000 6896.100000,4882.280000 6908.330000,4862.110000 6912.240000,4853.940000 6910.830000,4852.350000 6909.880000,4854.070000 6905.280000,4850.620000 6901.390000,4854.430000 6897.020000,4849.800000"/>
    <poly id="-153614" type="building" color="red" fill="1" layer="2.00" shape="6376.240000,4850.340000 6368.890000,4841.890000 6347.670000,4860.240000 6355.020000,4868.680000 6376.240000,4850.340000"/>
    <poly id="-153636" type="building" color="red" fill="1" layer="2.00" shape="6626.060000,5175.280000 6629.570000,5185.190000 6647.770000,5178.780000 6649.240000,5182.920000 6692.350000,5167.740000 6687.370000,5153.680000 6626.060000,5175.280000"/>
    <poly id="-153642" type="building" color="red" fill="1" layer="2.00" shape="6906.230000,4508.660000 6924.080000,4522.660000 6929.940000,4515.250000 6932.640000,4517.360000 6937.920000,4510.670000 6933.810000,4507.450000 6928.930000,4513.640000 6912.480000,4500.730000 6906.230000,4508.660000"/>
    <poly id="-153646" type="building" color="red" fill="1" layer="2.00" shape="6357.650000,4944.070000 6385.540000,4980.110000 6395.150000,4972.720000 6367.270000,4936.670000 6357.650000,4944.070000"/>
    <poly id="-153658" type="building" color="red" fill="1" layer="2.00" shape="6707.600000,4769.120000 6699.230000,4772.410000 6695.320000,4762.500000 6703.690000,4759.210000 6707.600000,4769.120000"/>
    <poly id="-153742" type="building" color="red" fill="1" layer="2.00" shape="7053.200000,4912.090000 7053.350000,4911.920000 7050.560000,4909.520000 7045.430000,4915.480000 7042.430000,4912.910000 7035.750000,4920.680000 7041.540000,4925.640000 7053.200000,4912.090000"/>
    <poly id="-153766" type="building" color="red" fill="1" layer="2.00" shape="7106.210000,4763.740000 7109.140000,4766.430000 7111.840000,4763.530000 7108.920000,4760.830000 7106.210000,4763.740000"/>
    <poly id="-153772" type="building" color="red" fill="1" layer="2.00" shape="6748.210000,4728.740000 6741.650000,4724.020000 6747.690000,4715.630000 6754.270000,4720.320000 6748.210000,4728.740000"/>
    <poly id="-153836" type="building" color="red" fill="1" layer="2.00" shape="6734.770000,5086.890000 6721.250000,5058.240000 6733.980000,5051.940000 6739.000000,5062.280000 6737.270000,5063.110000 6739.870000,5067.940000 6747.100000,5066.690000 6760.620000,5064.350000 6770.670000,5062.600000 6770.810000,5057.770000 6768.280000,5057.650000 6769.020000,5045.230000 6783.900000,5046.410000 6781.300000,5078.850000 6766.630000,5077.770000 6766.440000,5075.590000 6759.860000,5076.360000 6752.110000,5077.280000 6745.970000,5078.020000 6747.410000,5081.030000 6734.770000,5086.890000"/>
    <poly id="-153852" type="building" color="red" fill="1" layer="2.00" shape="6856.880000,4555.480000 6860.640000,4546.130000 6946.720000,4591.480000 6944.880000,4593.060000 6947.750000,4594.740000 6960.700000,4587.240000 6957.960000,4583.650000 6965.990000,4578.750000 6972.720000,4589.290000 6946.270000,4608.500000 6940.090000,4604.440000 6943.080000,4601.220000 6856.880000,4555.480000"/>
    <poly id="-153922" type="building" color="red" fill="1" layer="2.00" shape="6960.860000,4857.550000 6970.800000,4865.920000 6980.160000,4854.860000 6970.220000,4846.490000 6960.860000,4857.550000"/>
    <poly id="-153974" type="building" color="red" fill="1" layer="2.00" shape="6962.840000,4623.650000 6967.720000,4631.030000 6979.070000,4623.430000 6982.040000,4621.210000 6977.350000,4614.090000 6962.840000,4623.650000"/>
    <poly id="-153990" type="building" color="red" fill="1" layer="2.00" shape="6621.900000,4728.080000 6631.740000,4739.790000 6654.670000,4720.630000 6644.840000,4708.920000 6621.900000,4728.080000"/>
    <poly id="-154046" type="building" color="red" fill="1" layer="2.00" shape="6244.710000,5444.160000 6244.720000,5458.530000 6252.400000,5459.200000 6251.740000,5442.440000 6244.710000,5444.160000"/>
    <poly id="-154054" type="building" color="red" fill="1" layer="2.00" shape="6903.710000,4682.330000 6912.170000,4690.740000 6937.550000,4665.370000 6929.080000,4656.950000 6903.710000,4682.330000"/>