<routes>

	<vType id="vtype0" accel=".5" decel="4.5" sigma="0.5" length="5" maxSpeed="19.44" minGap="2" departLane="0"/>
	<vType id="vtype1" accel=".5" decel="4.5" sigma="0.5" length="5" maxSpeed="19.44" minGap="2" departLane="1"/>

	<flow id="flow0" type="vtype0" begin="0" from="RELS" to="RELS" departLane="free" number="500" period="1" departPos="random_free" departSpeed="2"/>
	<flow id="flow1" type="vtype1" begin="0" from="RELS" to="RELS" departLane="free" number="500" period="1" departPos="random_free" departSpeed="2"/>
	
	<flow id="flow2" type="vtype0" begin="0" from="LSRE" to="LSRE" departLane="free" number="500" period="1" departPos="random_free" departSpeed="2"/>
	<flow id="flow3" type="vtype1" begin="0" from="LSRE" to="LSRE" departLane="free" number="500" period="1" departPos="random_free" departSpeed="2"/>
</routes>
